
     RDKit          3D

 17 16  0  0  0  0  0  0  0  0999 V2000
   -1.9280    0.5436    0.2022 C   0  0  0  0  0  0  0  0  0  0  0  0
   -1.3351   -0.5810   -0.6115 C   0  0  0  0  0  0  0  0  0  0  0  0
    0.0509   -0.9023   -0.0319 C   0  0  0  0  0  0  0  0  0  0  0  0
    0.8569    0.3699   -0.1559 C   0  0  0  0  0  0  0  0  0  0  0  0
    2.2605    0.1970    0.3827 C   0  0  0  0  0  0  0  0  0  0  0  0
   -1.6798    0.4546    1.2857 H   0  0  0  0  0  0  0  0  0  0  0  0
   -3.0457    0.5523    0.0835 H   0  0  0  0  0  0  0  0  0  0  0  0
   -1.5395    1.4979   -0.2225 H   0  0  0  0  0  0  0  0  0  0  0  0
   -1.9745   -1.4972   -0.5494 H   0  0  0  0  0  0  0  0  0  0  0  0
   -1.2413   -0.2189   -1.6530 H   0  0  0  0  0  0  0  0  0  0  0  0
    0.5103   -1.7618   -0.5369 H   0  0  0  0  0  0  0  0  0  0  0  0
   -0.0597   -1.1044    1.0515 H   0  0  0  0  0  0  0  0  0  0  0  0
    0.8740    0.7705   -1.1901 H   0  0  0  0  0  0  0  0  0  0  0  0
    0.3397    1.1327    0.4818 H   0  0  0  0  0  0  0  0  0  0  0  0
    2.9491   -0.1758   -0.4283 H   0  0  0  0  0  0  0  0  0  0  0  0
    2.6715    1.2004    0.6540 H   0  0  0  0  0  0  0  0  0  0  0  0
    2.2906   -0.4774    1.2380 H   0  0  0  0  0  0  0  0  0  0  0  0
  1  2  1  0
  2  3  1  0
  3  4  1  0
  4  5  1  0
  1  6  1  0
  1  7  1  0
  1  8  1  0
  2  9  1  0
  2 10  1  0
  3 11  1  0
  3 12  1  0
  4 13  1  0
  4 14  1  0
  5 15  1  0
  5 16  1  0
  5 17  1  0
M  END
