
     RDKit          3D

 23 22  0  0  0  0  0  0  0  0999 V2000
   -2.5371    1.2873    0.2189 C   0  0  0  0  0  0  0  0  0  0  0  0
   -1.6649    0.0697    0.3552 C   0  0  0  0  0  0  0  0  0  0  0  0
   -0.8026   -0.0986   -0.8738 C   0  0  0  0  0  0  0  0  0  0  0  0
    0.1001   -1.2652   -0.8296 C   0  0  0  0  0  0  0  0  0  0  0  0
    1.1309   -1.3681    0.1998 C   0  0  0  0  0  0  0  0  0  0  0  0
    2.2054   -0.3456    0.2524 C   0  0  0  0  0  0  0  0  0  0  0  0
    1.7909    1.0684    0.4612 C   0  0  0  0  0  0  0  0  0  0  0  0
   -2.0110    2.0535   -0.4017 H   0  0  0  0  0  0  0  0  0  0  0  0
   -3.5124    1.0617   -0.2908 H   0  0  0  0  0  0  0  0  0  0  0  0
   -2.7456    1.7566    1.2197 H   0  0  0  0  0  0  0  0  0  0  0  0
   -2.3744   -0.8130    0.4332 H   0  0  0  0  0  0  0  0  0  0  0  0
   -1.1573    0.1079    1.3064 H   0  0  0  0  0  0  0  0  0  0  0  0
   -1.5560   -0.3379   -1.6933 H   0  0  0  0  0  0  0  0  0  0  0  0
   -0.3694    0.8603   -1.2116 H   0  0  0  0  0  0  0  0  0  0  0  0
   -0.5684   -2.1769   -0.7434 H   0  0  0  0  0  0  0  0  0  0  0  0
    0.5738   -1.3630   -1.8311 H   0  0  0  0  0  0  0  0  0  0  0  0
    1.6701   -2.3550    0.0502 H   0  0  0  0  0  0  0  0  0  0  0  0
    0.7467   -1.4736    1.2506 H   0  0  0  0  0  0  0  0  0  0  0  0
    2.8511   -0.6221    1.1455 H   0  0  0  0  0  0  0  0  0  0  0  0
    2.9266   -0.4197   -0.5990 H   0  0  0  0  0  0  0  0  0  0  0  0
    2.6135    1.5985    1.0409 H   0  0  0  0  0  0  0  0  0  0  0  0
    1.7885    1.5667   -0.5272 H   0  0  0  0  0  0  0  0  0  0  0  0
    0.9015    1.2080    1.0675 H   0  0  0  0  0  0  0  0  0  0  0  0
  1  2  1  0
  2  3  1  0
  3  4  1  0
  4  5  1  0
  5  6  1  0
  6  7  1  0
  1  8  1  0
  1  9  1  0
  1 10  1  0
  2 11  1  0
  2 12  1  0
  3 13  1  0
  3 14  1  0
  4 15  1  0
  4 16  1  0
  5 17  1  0
  5 18  1  0
  6 19  1  0
  6 20  1  0
  7 21  1  0
  7 22  1  0
  7 23  1  0
M  END
