
     RDKit          3D

 41 40  0  0  0  0  0  0  0  0999 V2000
    3.3360    0.9352    1.9492 C   0  0  0  0  0  0  0  0  0  0  0  0
    3.7245    1.1230    0.5319 C   0  0  0  0  0  0  0  0  0  0  0  0
    2.6982    0.8492   -0.5035 C   0  0  0  0  0  0  0  0  0  0  0  0
    2.1591   -0.5141   -0.6174 C   0  0  0  0  0  0  0  0  0  0  0  0
    1.4514   -1.1108    0.5393 C   0  0  0  0  0  0  0  0  0  0  0  0
    0.9416   -2.4878    0.2431 C   0  0  0  0  0  0  0  0  0  0  0  0
    0.0343   -2.7039   -0.8896 C   0  0  0  0  0  0  0  0  0  0  0  0
   -1.2639   -2.0268   -0.8876 C   0  0  0  0  0  0  0  0  0  0  0  0
   -1.3642   -0.5571   -0.9486 C   0  0  0  0  0  0  0  0  0  0  0  0
   -2.8701   -0.2085   -0.9666 C   0  0  0  0  0  0  0  0  0  0  0  0
   -3.1355    1.2456   -1.0393 C   0  0  0  0  0  0  0  0  0  0  0  0
   -2.5884    2.0275    0.1019 C   0  0  0  0  0  0  0  0  0  0  0  0
   -3.1982    1.5127    1.3952 C   0  0  0  0  0  0  0  0  0  0  0  0
    3.7333    1.8471    2.5087 H   0  0  0  0  0  0  0  0  0  0  0  0
    2.2677    0.8973    2.1613 H   0  0  0  0  0  0  0  0  0  0  0  0
    3.8130    0.0415    2.4309 H   0  0  0  0  0  0  0  0  0  0  0  0
    4.6418    0.4961    0.3119 H   0  0  0  0  0  0  0  0  0  0  0  0
    4.0954    2.1808    0.3400 H   0  0  0  0  0  0  0  0  0  0  0  0
    1.8336    1.5751   -0.4251 H   0  0  0  0  0  0  0  0  0  0  0  0
    3.1501    1.1280   -1.5122 H   0  0  0  0  0  0  0  0  0  0  0  0
    3.0145   -1.2051   -0.8639 H   0  0  0  0  0  0  0  0  0  0  0  0
    1.4589   -0.5750   -1.4923 H   0  0  0  0  0  0  0  0  0  0  0  0
    2.2402   -1.3205    1.3778 H   0  0  0  0  0  0  0  0  0  0  0  0
    0.7167   -0.5231    1.0720 H   0  0  0  0  0  0  0  0  0  0  0  0
    1.8244   -3.2194    0.1841 H   0  0  0  0  0  0  0  0  0  0  0  0
    0.4627   -2.8236    1.2334 H   0  0  0  0  0  0  0  0  0  0  0  0
   -0.1361   -3.8441   -0.9826 H   0  0  0  0  0  0  0  0  0  0  0  0
    0.6067   -2.5152   -1.8641 H   0  0  0  0  0  0  0  0  0  0  0  0
   -1.9169   -2.4771   -1.7170 H   0  0  0  0  0  0  0  0  0  0  0  0
   -1.8848   -2.3396    0.0303 H   0  0  0  0  0  0  0  0  0  0  0  0
   -0.9323    0.0395   -0.1594 H   0  0  0  0  0  0  0  0  0  0  0  0
   -0.9113   -0.2190   -1.9113 H   0  0  0  0  0  0  0  0  0  0  0  0
   -3.3126   -0.7745   -1.8076 H   0  0  0  0  0  0  0  0  0  0  0  0
   -3.3323   -0.6029   -0.0372 H   0  0  0  0  0  0  0  0  0  0  0  0
   -4.2578    1.3710   -1.0134 H   0  0  0  0  0  0  0  0  0  0  0  0
   -2.8442    1.7005   -2.0182 H   0  0  0  0  0  0  0  0  0  0  0  0
   -1.4938    1.9164    0.1527 H   0  0  0  0  0  0  0  0  0  0  0  0
   -2.7867    3.1260   -0.0028 H   0  0  0  0  0  0  0  0  0  0  0  0
   -2.7301    0.5072    1.5679 H   0  0  0  0  0  0  0  0  0  0  0  0
   -4.2886    1.3283    1.2755 H   0  0  0  0  0  0  0  0  0  0  0  0
   -2.9566    2.1583    2.2528 H   0  0  0  0  0  0  0  0  0  0  0  0
  1  2  1  0
  2  3  1  0
  3  4  1  0
  4  5  1  0
  5  6  1  0
  6  7  1  0
  7  8  1  0
  8  9  1  0
  9 10  1  0
 10 11  1  0
 11 12  1  0
 12 13  1  0
  1 14  1  0
  1 15  1  0
  1 16  1  0
  2 17  1  0
  2 18  1  0
  3 19  1  0
  3 20  1  0
  4 21  1  0
  4 22  1  0
  5 23  1  0
  5 24  1  0
  6 25  1  0
  6 26  1  0
  7 27  1  0
  7 28  1  0
  8 29  1  0
  8 30  1  0
  9 31  1  0
  9 32  1  0
 10 33  1  0
 10 34  1  0
 11 35  1  0
 11 36  1  0
 12 37  1  0
 12 38  1  0
 13 39  1  0
 13 40  1  0
 13 41  1  0
M  END
