
     RDKit          3D

 20 19  0  0  0  0  0  0  0  0999 V2000
    2.7105   -0.7455    0.0012 C   0  0  0  0  0  0  0  0  0  0  0  0
    1.7605    0.4369   -0.1109 C   0  0  0  0  0  0  0  0  0  0  0  0
    0.4093   -0.0272    0.4143 C   0  0  0  0  0  0  0  0  0  0  0  0
   -0.6211    1.0580    0.3557 C   0  0  0  0  0  0  0  0  0  0  0  0
   -1.9101    0.4934    0.8957 C   0  0  0  0  0  0  0  0  0  0  0  0
   -2.4191   -0.6822    0.1239 C   0  0  0  0  0  0  0  0  0  0  0  0
    2.1574   -1.6927   -0.1715 H   0  0  0  0  0  0  0  0  0  0  0  0
    3.1058   -0.7237    1.0378 H   0  0  0  0  0  0  0  0  0  0  0  0
    3.5133   -0.6915   -0.7633 H   0  0  0  0  0  0  0  0  0  0  0  0
    2.1497    1.3043    0.4690 H   0  0  0  0  0  0  0  0  0  0  0  0
    1.6865    0.7220   -1.1796 H   0  0  0  0  0  0  0  0  0  0  0  0
    0.1468   -0.9298   -0.1606 H   0  0  0  0  0  0  0  0  0  0  0  0
    0.5241   -0.3231    1.4774 H   0  0  0  0  0  0  0  0  0  0  0  0
   -0.7357    1.4986   -0.6534 H   0  0  0  0  0  0  0  0  0  0  0  0
   -0.3034    1.8638    1.0429 H   0  0  0  0  0  0  0  0  0  0  0  0
   -1.6731    0.1217    1.9330 H   0  0  0  0  0  0  0  0  0  0  0  0
   -2.6710    1.2958    0.9152 H   0  0  0  0  0  0  0  0  0  0  0  0
   -1.9000   -1.6220    0.3653 H   0  0  0  0  0  0  0  0  0  0  0  0
   -2.4336   -0.5306   -0.9738 H   0  0  0  0  0  0  0  0  0  0  0  0
   -3.4967   -0.8263    0.4286 H   0  0  0  0  0  0  0  0  0  0  0  0
  1  2  1  0
  2  3  1  0
  3  4  1  0
  4  5  1  0
  5  6  1  0
  1  7  1  0
  1  8  1  0
  1  9  1  0
  2 10  1  0
  2 11  1  0
  3 12  1  0
  3 13  1  0
  4 14  1  0
  4 15  1  0
  5 16  1  0
  5 17  1  0
  6 18  1  0
  6 19  1  0
  6 20  1  0
M  END
