
     RDKit          3D

107106  0  0  0  0  0  0  0  0999 V2000
   -8.8377    2.0446   -5.2792 C   0  0  0  0  0  0  0  0  0  0  0  0
   -8.2802    1.1399   -4.1896 C   0  0  0  0  0  0  0  0  0  0  0  0
   -9.1998   -0.0383   -4.0772 C   0  0  0  0  0  0  0  0  0  0  0  0
   -8.6955   -0.9773   -3.0119 C   0  0  0  0  0  0  0  0  0  0  0  0
   -8.6414   -0.2852   -1.6725 C   0  0  0  0  0  0  0  0  0  0  0  0
   -8.1447   -1.2598   -0.5996 C   0  0  0  0  0  0  0  0  0  0  0  0
   -8.1028   -0.6146    0.7584 C   0  0  0  0  0  0  0  0  0  0  0  0
   -7.1549    0.5452    0.7744 C   0  0  0  0  0  0  0  0  0  0  0  0
   -7.1600    1.2067    2.1434 C   0  0  0  0  0  0  0  0  0  0  0  0
   -6.2190    2.3659    2.2252 C   0  0  0  0  0  0  0  0  0  0  0  0
   -4.7783    1.8618    2.0192 C   0  0  0  0  0  0  0  0  0  0  0  0
   -3.8293    2.9916    2.0767 C   0  0  0  0  0  0  0  0  0  0  0  0
   -2.4176    2.7249    1.8076 C   0  0  0  0  0  0  0  0  0  0  0  0
   -1.6626    1.7572    2.6183 C   0  0  0  0  0  0  0  0  0  0  0  0
   -2.0305    0.3315    2.4473 C   0  0  0  0  0  0  0  0  0  0  0  0
   -1.1943   -0.5495    3.3976 C   0  0  0  0  0  0  0  0  0  0  0  0
   -1.6072   -1.9664    3.2126 C   0  0  0  0  0  0  0  0  0  0  0  0
   -1.3979   -2.5387    1.8557 C   0  0  0  0  0  0  0  0  0  0  0  0
    0.0476   -2.5809    1.4033 C   0  0  0  0  0  0  0  0  0  0  0  0
    0.8828   -3.3859    2.3434 C   0  0  0  0  0  0  0  0  0  0  0  0
    2.2905   -3.5255    1.9382 C   0  0  0  0  0  0  0  0  0  0  0  0
    3.0961   -2.2806    1.7566 C   0  0  0  0  0  0  0  0  0  0  0  0
    3.1077   -1.5114    3.0234 C   0  0  0  0  0  0  0  0  0  0  0  0
    3.8788   -0.2538    3.0884 C   0  0  0  0  0  0  0  0  0  0  0  0
    5.3359   -0.2641    2.9677 C   0  0  0  0  0  0  0  0  0  0  0  0
    6.0273   -0.7632    1.7781 C   0  0  0  0  0  0  0  0  0  0  0  0
    5.7117   -0.0769    0.4706 C   0  0  0  0  0  0  0  0  0  0  0  0
    6.5046   -0.7599   -0.6444 C   0  0  0  0  0  0  0  0  0  0  0  0
    7.9918   -0.7221   -0.4013 C   0  0  0  0  0  0  0  0  0  0  0  0
    8.7634   -1.4020   -1.5014 C   0  0  0  0  0  0  0  0  0  0  0  0
    8.5971   -0.8000   -2.8567 C   0  0  0  0  0  0  0  0  0  0  0  0
    9.0726    0.6492   -2.8914 C   0  0  0  0  0  0  0  0  0  0  0  0
    8.8955    1.2295   -4.2700 C   0  0  0  0  0  0  0  0  0  0  0  0
    9.3798    2.6495   -4.2689 C   0  0  0  0  0  0  0  0  0  0  0  0
    9.2371    3.3170   -5.6186 C   0  0  0  0  0  0  0  0  0  0  0  0
   -8.2008    2.9168   -5.4173 H   0  0  0  0  0  0  0  0  0  0  0  0
   -8.9008    1.4740   -6.2059 H   0  0  0  0  0  0  0  0  0  0  0  0
   -9.8592    2.3947   -5.0273 H   0  0  0  0  0  0  0  0  0  0  0  0
   -7.2500    0.8442   -4.5133 H   0  0  0  0  0  0  0  0  0  0  0  0
   -8.1950    1.7308   -3.2746 H   0  0  0  0  0  0  0  0  0  0  0  0
   -9.2974   -0.5893   -5.0400 H   0  0  0  0  0  0  0  0  0  0  0  0
  -10.1971    0.3411   -3.7411 H   0  0  0  0  0  0  0  0  0  0  0  0
   -7.6639   -1.2832   -3.3440 H   0  0  0  0  0  0  0  0  0  0  0  0
   -9.3188   -1.8976   -2.9467 H   0  0  0  0  0  0  0  0  0  0  0  0
   -9.6607   -0.0010   -1.3475 H   0  0  0  0  0  0  0  0  0  0  0  0
   -7.9174    0.5552   -1.6888 H   0  0  0  0  0  0  0  0  0  0  0  0
   -8.8797   -2.1114   -0.5420 H   0  0  0  0  0  0  0  0  0  0  0  0
   -7.1620   -1.6365   -0.9144 H   0  0  0  0  0  0  0  0  0  0  0  0
   -9.1276   -0.3119    1.0751 H   0  0  0  0  0  0  0  0  0  0  0  0
   -7.7301   -1.3413    1.5147 H   0  0  0  0  0  0  0  0  0  0  0  0
   -7.4114    1.3542    0.0429 H   0  0  0  0  0  0  0  0  0  0  0  0
   -6.1658    0.1575    0.4750 H   0  0  0  0  0  0  0  0  0  0  0  0
   -6.8591    0.3927    2.8651 H   0  0  0  0  0  0  0  0  0  0  0  0
   -8.1704    1.4985    2.4513 H   0  0  0  0  0  0  0  0  0  0  0  0
   -6.3889    3.0447    1.3403 H   0  0  0  0  0  0  0  0  0  0  0  0
   -6.3171    2.9565    3.1367 H   0  0  0  0  0  0  0  0  0  0  0  0
   -4.5912    1.2472    2.9766 H   0  0  0  0  0  0  0  0  0  0  0  0
   -4.6485    1.2201    1.1694 H   0  0  0  0  0  0  0  0  0  0  0  0
   -3.9853    3.5147    3.0765 H   0  0  0  0  0  0  0  0  0  0  0  0
   -4.1805    3.8171    1.3587 H   0  0  0  0  0  0  0  0  0  0  0  0
   -1.8367    3.7158    1.7401 H   0  0  0  0  0  0  0  0  0  0  0  0
   -2.2853    2.3732    0.7065 H   0  0  0  0  0  0  0  0  0  0  0  0
   -0.5628    1.8738    2.3559 H   0  0  0  0  0  0  0  0  0  0  0  0
   -1.7591    2.0755    3.7014 H   0  0  0  0  0  0  0  0  0  0  0  0
   -3.0399    0.0250    2.4920 H   0  0  0  0  0  0  0  0  0  0  0  0
   -1.6504    0.0568    1.3926 H   0  0  0  0  0  0  0  0  0  0  0  0
   -0.1408   -0.3519    3.2296 H   0  0  0  0  0  0  0  0  0  0  0  0
   -1.4611   -0.1777    4.4101 H   0  0  0  0  0  0  0  0  0  0  0  0
   -1.1133   -2.6272    3.9913 H   0  0  0  0  0  0  0  0  0  0  0  0
   -2.7074   -2.1086    3.4448 H   0  0  0  0  0  0  0  0  0  0  0  0
   -1.7404   -3.6001    1.8875 H   0  0  0  0  0  0  0  0  0  0  0  0
   -1.9684   -1.9583    1.1150 H   0  0  0  0  0  0  0  0  0  0  0  0
    0.4911   -1.5595    1.3368 H   0  0  0  0  0  0  0  0  0  0  0  0
    0.0473   -3.0514    0.3993 H   0  0  0  0  0  0  0  0  0  0  0  0
    0.7982   -2.9585    3.3683 H   0  0  0  0  0  0  0  0  0  0  0  0
    0.4730   -4.4348    2.4669 H   0  0  0  0  0  0  0  0  0  0  0  0
    2.3917   -4.1237    1.0036 H   0  0  0  0  0  0  0  0  0  0  0  0
    2.8405   -4.1282    2.7289 H   0  0  0  0  0  0  0  0  0  0  0  0
    4.0864   -2.5983    1.3986 H   0  0  0  0  0  0  0  0  0  0  0  0
    2.6739   -1.6692    0.9023 H   0  0  0  0  0  0  0  0  0  0  0  0
    2.0141   -1.2722    3.2438 H   0  0  0  0  0  0  0  0  0  0  0  0
    3.3952   -2.1318    3.9093 H   0  0  0  0  0  0  0  0  0  0  0  0
    3.6411    0.2051    4.1055 H   0  0  0  0  0  0  0  0  0  0  0  0
    3.3759    0.4845    2.3929 H   0  0  0  0  0  0  0  0  0  0  0  0
    5.7406   -0.8421    3.8514 H   0  0  0  0  0  0  0  0  0  0  0  0
    5.7079    0.7840    3.1645 H   0  0  0  0  0  0  0  0  0  0  0  0
    6.1462   -1.8275    1.6190 H   0  0  0  0  0  0  0  0  0  0  0  0
    7.1421   -0.4382    1.9551 H   0  0  0  0  0  0  0  0  0  0  0  0
    4.6559   -0.1351    0.1699 H   0  0  0  0  0  0  0  0  0  0  0  0
    5.9926    0.9956    0.4994 H   0  0  0  0  0  0  0  0  0  0  0  0
    6.1726   -1.8264   -0.6463 H   0  0  0  0  0  0  0  0  0  0  0  0
    6.2570   -0.3721   -1.6421 H   0  0  0  0  0  0  0  0  0  0  0  0
    8.3769    0.2956   -0.2250 H   0  0  0  0  0  0  0  0  0  0  0  0
    8.2383   -1.3152    0.5310 H   0  0  0  0  0  0  0  0  0  0  0  0
    8.5787   -2.4993   -1.4990 H   0  0  0  0  0  0  0  0  0  0  0  0
    9.8475   -1.3100   -1.1956 H   0  0  0  0  0  0  0  0  0  0  0  0
    9.2999   -1.3416   -3.5486 H   0  0  0  0  0  0  0  0  0  0  0  0
    7.5940   -0.8973   -3.2750 H   0  0  0  0  0  0  0  0  0  0  0  0
    8.4746    1.2048   -2.1417 H   0  0  0  0  0  0  0  0  0  0  0  0
   10.1399    0.7143   -2.6283 H   0  0  0  0  0  0  0  0  0  0  0  0
    9.5042    0.6633   -4.9902 H   0  0  0  0  0  0  0  0  0  0  0  0
    7.8262    1.2118   -4.5706 H   0  0  0  0  0  0  0  0  0  0  0  0
   10.4727    2.6667   -4.0002 H   0  0  0  0  0  0  0  0  0  0  0  0
    8.8463    3.2545   -3.5137 H   0  0  0  0  0  0  0  0  0  0  0  0
   10.1744    3.1493   -6.2268 H   0  0  0  0  0  0  0  0  0  0  0  0
    8.4106    2.8512   -6.1867 H   0  0  0  0  0  0  0  0  0  0  0  0
    9.0499    4.4093   -5.5530 H   0  0  0  0  0  0  0  0  0  0  0  0
  1  2  1  0
  2  3  1  0
  3  4  1  0
  4  5  1  0
  5  6  1  0
  6  7  1  0
  7  8  1  0
  8  9  1  0
  9 10  1  0
 10 11  1  0
 11 12  1  0
 12 13  1  0
 13 14  1  0
 14 15  1  0
 15 16  1  0
 16 17  1  0
 17 18  1  0
 18 19  1  0
 19 20  1  0
 20 21  1  0
 21 22  1  0
 22 23  1  0
 23 24  1  0
 24 25  1  0
 25 26  1  0
 26 27  1  0
 27 28  1  0
 28 29  1  0
 29 30  1  0
 30 31  1  0
 31 32  1  0
 32 33  1  0
 33 34  1  0
 34 35  1  0
  1 36  1  0
  1 37  1  0
  1 38  1  0
  2 39  1  0
  2 40  1  0
  3 41  1  0
  3 42  1  0
  4 43  1  0
  4 44  1  0
  5 45  1  0
  5 46  1  0
  6 47  1  0
  6 48  1  0
  7 49  1  0
  7 50  1  0
  8 51  1  0
  8 52  1  0
  9 53  1  0
  9 54  1  0
 10 55  1  0
 10 56  1  0
 11 57  1  0
 11 58  1  0
 12 59  1  0
 12 60  1  0
 13 61  1  0
 13 62  1  0
 14 63  1  0
 14 64  1  0
 15 65  1  0
 15 66  1  0
 16 67  1  0
 16 68  1  0
 17 69  1  0
 17 70  1  0
 18 71  1  0
 18 72  1  0
 19 73  1  0
 19 74  1  0
 20 75  1  0
 20 76  1  0
 21 77  1  0
 21 78  1  0
 22 79  1  0
 22 80  1  0
 23 81  1  0
 23 82  1  0
 24 83  1  0
 24 84  1  0
 25 85  1  0
 25 86  1  0
 26 87  1  0
 26 88  1  0
 27 89  1  0
 27 90  1  0
 28 91  1  0
 28 92  1  0
 29 93  1  0
 29 94  1  0
 30 95  1  0
 30 96  1  0
 31 97  1  0
 31 98  1  0
 32 99  1  0
 32100  1  0
 33101  1  0
 33102  1  0
 34103  1  0
 34104  1  0
 35105  1  0
 35106  1  0
 35107  1  0
M  END
