
     RDKit          3D

 65 64  0  0  0  0  0  0  0  0999 V2000
    7.7670    1.8216    0.0125 C   0  0  0  0  0  0  0  0  0  0  0  0
    8.3779    0.5517    0.5605 C   0  0  0  0  0  0  0  0  0  0  0  0
    7.3387   -0.3662    1.1548 C   0  0  0  0  0  0  0  0  0  0  0  0
    6.3391   -0.7419    0.0824 C   0  0  0  0  0  0  0  0  0  0  0  0
    5.2682   -1.6530    0.5817 C   0  0  0  0  0  0  0  0  0  0  0  0
    4.4528   -1.0751    1.6980 C   0  0  0  0  0  0  0  0  0  0  0  0
    3.7412    0.1835    1.3375 C   0  0  0  0  0  0  0  0  0  0  0  0
    2.7717   -0.0032    0.1847 C   0  0  0  0  0  0  0  0  0  0  0  0
    2.0742    1.2950   -0.1463 C   0  0  0  0  0  0  0  0  0  0  0  0
    1.1049    1.2093   -1.2781 C   0  0  0  0  0  0  0  0  0  0  0  0
    0.0119    0.2389   -0.9891 C   0  0  0  0  0  0  0  0  0  0  0  0
   -0.9889    0.1570   -2.1469 C   0  0  0  0  0  0  0  0  0  0  0  0
   -2.0823   -0.8372   -1.8243 C   0  0  0  0  0  0  0  0  0  0  0  0
   -2.8512   -0.4706   -0.5936 C   0  0  0  0  0  0  0  0  0  0  0  0
   -3.9069   -1.5050   -0.3586 C   0  0  0  0  0  0  0  0  0  0  0  0
   -4.8997   -1.6952   -1.4046 C   0  0  0  0  0  0  0  0  0  0  0  0
   -5.7667   -0.6524   -1.9175 C   0  0  0  0  0  0  0  0  0  0  0  0
   -6.7299    0.0542   -1.0353 C   0  0  0  0  0  0  0  0  0  0  0  0
   -6.2103    0.8515    0.0955 C   0  0  0  0  0  0  0  0  0  0  0  0
   -7.3578    1.5317    0.8622 C   0  0  0  0  0  0  0  0  0  0  0  0
   -8.3157    0.5216    1.4169 C   0  0  0  0  0  0  0  0  0  0  0  0
    7.1057    2.3166    0.7531 H   0  0  0  0  0  0  0  0  0  0  0  0
    8.6038    2.5279   -0.2004 H   0  0  0  0  0  0  0  0  0  0  0  0
    7.2478    1.6615   -0.9595 H   0  0  0  0  0  0  0  0  0  0  0  0
    8.8766    0.0030   -0.2504 H   0  0  0  0  0  0  0  0  0  0  0  0
    9.1199    0.8439    1.3239 H   0  0  0  0  0  0  0  0  0  0  0  0
    6.8869    0.1495    2.0071 H   0  0  0  0  0  0  0  0  0  0  0  0
    7.8767   -1.2502    1.5540 H   0  0  0  0  0  0  0  0  0  0  0  0
    6.9080   -1.2843   -0.7013 H   0  0  0  0  0  0  0  0  0  0  0  0
    5.9666    0.1903   -0.3611 H   0  0  0  0  0  0  0  0  0  0  0  0
    5.7712   -2.5682    0.9845 H   0  0  0  0  0  0  0  0  0  0  0  0
    4.6574   -1.9781   -0.2635 H   0  0  0  0  0  0  0  0  0  0  0  0
    3.6904   -1.8329    1.9791 H   0  0  0  0  0  0  0  0  0  0  0  0
    5.0753   -0.8886    2.5799 H   0  0  0  0  0  0  0  0  0  0  0  0
    4.4156    1.0217    1.0963 H   0  0  0  0  0  0  0  0  0  0  0  0
    3.1322    0.4944    2.2118 H   0  0  0  0  0  0  0  0  0  0  0  0
    3.3563   -0.2925   -0.7274 H   0  0  0  0  0  0  0  0  0  0  0  0
    2.0446   -0.7898    0.3727 H   0  0  0  0  0  0  0  0  0  0  0  0
    2.8038    2.1245   -0.3011 H   0  0  0  0  0  0  0  0  0  0  0  0
    1.5081    1.5835    0.7771 H   0  0  0  0  0  0  0  0  0  0  0  0
    1.6650    0.8477   -2.1895 H   0  0  0  0  0  0  0  0  0  0  0  0
    0.7058    2.2338   -1.4487 H   0  0  0  0  0  0  0  0  0  0  0  0
   -0.5731    0.6657   -0.1231 H   0  0  0  0  0  0  0  0  0  0  0  0
    0.3632   -0.7481   -0.6943 H   0  0  0  0  0  0  0  0  0  0  0  0
   -0.4266   -0.1596   -3.0482 H   0  0  0  0  0  0  0  0  0  0  0  0
   -1.3796    1.1644   -2.3482 H   0  0  0  0  0  0  0  0  0  0  0  0
   -2.7025   -1.0611   -2.6951 H   0  0  0  0  0  0  0  0  0  0  0  0
   -1.5491   -1.8050   -1.5829 H   0  0  0  0  0  0  0  0  0  0  0  0
   -2.1249   -0.5834    0.2680 H   0  0  0  0  0  0  0  0  0  0  0  0
   -3.1955    0.5585   -0.5547 H   0  0  0  0  0  0  0  0  0  0  0  0
   -3.2731   -2.4800   -0.2791 H   0  0  0  0  0  0  0  0  0  0  0  0
   -4.2945   -1.4345    0.6611 H   0  0  0  0  0  0  0  0  0  0  0  0
   -4.3671   -2.2171   -2.2770 H   0  0  0  0  0  0  0  0  0  0  0  0
   -5.5949   -2.5499   -1.0790 H   0  0  0  0  0  0  0  0  0  0  0  0
   -6.4335   -1.1382   -2.7214 H   0  0  0  0  0  0  0  0  0  0  0  0
   -5.2438    0.1237   -2.5533 H   0  0  0  0  0  0  0  0  0  0  0  0
   -7.4804   -0.6754   -0.5757 H   0  0  0  0  0  0  0  0  0  0  0  0
   -7.3488    0.7701   -1.6729 H   0  0  0  0  0  0  0  0  0  0  0  0
   -5.6934    0.2677    0.8735 H   0  0  0  0  0  0  0  0  0  0  0  0
   -5.5904    1.6803   -0.2958 H   0  0  0  0  0  0  0  0  0  0  0  0
   -7.9062    2.2398    0.2059 H   0  0  0  0  0  0  0  0  0  0  0  0
   -6.9512    2.1275    1.7046 H   0  0  0  0  0  0  0  0  0  0  0  0
   -8.7938    0.8471    2.3630 H   0  0  0  0  0  0  0  0  0  0  0  0
   -7.8371   -0.4588    1.6164 H   0  0  0  0  0  0  0  0  0  0  0  0
   -9.1598    0.3360    0.6971 H   0  0  0  0  0  0  0  0  0  0  0  0
  1  2  1  0
  2  3  1  0
  3  4  1  0
  4  5  1  0
  5  6  1  0
  6  7  1  0
  7  8  1  0
  8  9  1  0
  9 10  1  0
 10 11  1  0
 11 12  1  0
 12 13  1  0
 13 14  1  0
 14 15  1  0
 15 16  1  0
 16 17  1  0
 17 18  1  0
 18 19  1  0
 19 20  1  0
 20 21  1  0
  1 22  1  0
  1 23  1  0
  1 24  1  0
  2 25  1  0
  2 26  1  0
  3 27  1  0
  3 28  1  0
  4 29  1  0
  4 30  1  0
  5 31  1  0
  5 32  1  0
  6 33  1  0
  6 34  1  0
  7 35  1  0
  7 36  1  0
  8 37  1  0
  8 38  1  0
  9 39  1  0
  9 40  1  0
 10 41  1  0
 10 42  1  0
 11 43  1  0
 11 44  1  0
 12 45  1  0
 12 46  1  0
 13 47  1  0
 13 48  1  0
 14 49  1  0
 14 50  1  0
 15 51  1  0
 15 52  1  0
 16 53  1  0
 16 54  1  0
 17 55  1  0
 17 56  1  0
 18 57  1  0
 18 58  1  0
 19 59  1  0
 19 60  1  0
 20 61  1  0
 20 62  1  0
 21 63  1  0
 21 64  1  0
 21 65  1  0
M  END
