
     RDKit          3D

 29 28  0  0  0  0  0  0  0  0999 V2000
    3.4637    1.6823    0.1126 C   0  0  0  0  0  0  0  0  0  0  0  0
    2.4618    0.6109   -0.3482 C   0  0  0  0  0  0  0  0  0  0  0  0
    2.0912   -0.1370    0.9047 C   0  0  0  0  0  0  0  0  0  0  0  0
    1.1294   -1.2508    0.6294 C   0  0  0  0  0  0  0  0  0  0  0  0
   -0.1343   -0.6058    0.0349 C   0  0  0  0  0  0  0  0  0  0  0  0
   -1.1762   -1.6162   -0.2558 C   0  0  0  0  0  0  0  0  0  0  0  0
   -2.3833   -1.0463   -0.8876 C   0  0  0  0  0  0  0  0  0  0  0  0
   -3.1691   -0.0099   -0.1842 C   0  0  0  0  0  0  0  0  0  0  0  0
   -2.4682    1.2789    0.0659 C   0  0  0  0  0  0  0  0  0  0  0  0
    3.5158    2.4617   -0.6871 H   0  0  0  0  0  0  0  0  0  0  0  0
    3.0950    2.0944    1.0731 H   0  0  0  0  0  0  0  0  0  0  0  0
    4.4643    1.2239    0.2251 H   0  0  0  0  0  0  0  0  0  0  0  0
    1.6323    1.1789   -0.8069 H   0  0  0  0  0  0  0  0  0  0  0  0
    2.9527   -0.0571   -1.0809 H   0  0  0  0  0  0  0  0  0  0  0  0
    3.0100   -0.4765    1.4280 H   0  0  0  0  0  0  0  0  0  0  0  0
    1.5473    0.5706    1.5996 H   0  0  0  0  0  0  0  0  0  0  0  0
    0.8973   -1.8694    1.4919 H   0  0  0  0  0  0  0  0  0  0  0  0
    1.5838   -1.8661   -0.2010 H   0  0  0  0  0  0  0  0  0  0  0  0
    0.1709   -0.1009   -0.8792 H   0  0  0  0  0  0  0  0  0  0  0  0
   -0.4527    0.0715    0.8621 H   0  0  0  0  0  0  0  0  0  0  0  0
   -1.4696   -2.1500    0.7033 H   0  0  0  0  0  0  0  0  0  0  0  0
   -0.7823   -2.4478   -0.9052 H   0  0  0  0  0  0  0  0  0  0  0  0
   -3.1150   -1.8811   -1.1668 H   0  0  0  0  0  0  0  0  0  0  0  0
   -2.1448   -0.5916   -1.9113 H   0  0  0  0  0  0  0  0  0  0  0  0
   -3.6496   -0.4003    0.7541 H   0  0  0  0  0  0  0  0  0  0  0  0
   -4.0602    0.2309   -0.8519 H   0  0  0  0  0  0  0  0  0  0  0  0
   -3.1718    2.1477   -0.2006 H   0  0  0  0  0  0  0  0  0  0  0  0
   -2.2503    1.4680    1.1317 H   0  0  0  0  0  0  0  0  0  0  0  0
   -1.5883    1.4871   -0.5481 H   0  0  0  0  0  0  0  0  0  0  0  0
  1  2  1  0
  2  3  1  0
  3  4  1  0
  4  5  1  0
  5  6  1  0
  6  7  1  0
  7  8  1  0
  8  9  1  0
  1 10  1  0
  1 11  1  0
  1 12  1  0
  2 13  1  0
  2 14  1  0
  3 15  1  0
  3 16  1  0
  4 17  1  0
  4 18  1  0
  5 19  1  0
  5 20  1  0
  6 21  1  0
  6 22  1  0
  7 23  1  0
  7 24  1  0
  8 25  1  0
  8 26  1  0
  9 27  1  0
  9 28  1  0
  9 29  1  0
M  END
