
     RDKit          3D

116115  0  0  0  0  0  0  0  0999 V2000
  -12.2453   -0.6883    3.1076 C   0  0  0  0  0  0  0  0  0  0  0  0
  -12.9121   -1.2514    1.8704 C   0  0  0  0  0  0  0  0  0  0  0  0
  -12.1473   -0.7310    0.6559 C   0  0  0  0  0  0  0  0  0  0  0  0
  -12.8254   -1.3127   -0.5558 C   0  0  0  0  0  0  0  0  0  0  0  0
  -12.1502   -0.8546   -1.7981 C   0  0  0  0  0  0  0  0  0  0  0  0
  -10.7058   -1.2605   -1.8082 C   0  0  0  0  0  0  0  0  0  0  0  0
  -10.5948   -2.7529   -1.7254 C   0  0  0  0  0  0  0  0  0  0  0  0
   -9.1778   -3.2036   -1.7810 C   0  0  0  0  0  0  0  0  0  0  0  0
   -8.3794   -2.6152   -0.5967 C   0  0  0  0  0  0  0  0  0  0  0  0
   -7.0059   -3.1565   -0.7412 C   0  0  0  0  0  0  0  0  0  0  0  0
   -5.9633   -2.9177    0.2420 C   0  0  0  0  0  0  0  0  0  0  0  0
   -5.5545   -1.5312    0.6247 C   0  0  0  0  0  0  0  0  0  0  0  0
   -6.5602   -0.7618    1.3870 C   0  0  0  0  0  0  0  0  0  0  0  0
   -6.3309    0.6506    1.7083 C   0  0  0  0  0  0  0  0  0  0  0  0
   -5.2140    1.1433    2.5025 C   0  0  0  0  0  0  0  0  0  0  0  0
   -3.8424    0.9942    1.9486 C   0  0  0  0  0  0  0  0  0  0  0  0
   -3.7931    1.7316    0.6352 C   0  0  0  0  0  0  0  0  0  0  0  0
   -2.4155    1.6468    0.0522 C   0  0  0  0  0  0  0  0  0  0  0  0
   -1.3716    2.2485    0.9594 C   0  0  0  0  0  0  0  0  0  0  0  0
   -0.0334    2.1540    0.2049 C   0  0  0  0  0  0  0  0  0  0  0  0
    1.0643    2.7486    1.0598 C   0  0  0  0  0  0  0  0  0  0  0  0
    2.3854    2.7243    0.3830 C   0  0  0  0  0  0  0  0  0  0  0  0
    2.9317    1.3906    0.0160 C   0  0  0  0  0  0  0  0  0  0  0  0
    4.3016    1.5157   -0.6568 C   0  0  0  0  0  0  0  0  0  0  0  0
    4.2555    2.2572   -1.9214 C   0  0  0  0  0  0  0  0  0  0  0  0
    5.5892    2.4530   -2.5570 C   0  0  0  0  0  0  0  0  0  0  0  0
    6.5906    3.3024   -1.9081 C   0  0  0  0  0  0  0  0  0  0  0  0
    7.1465    3.0193   -0.5874 C   0  0  0  0  0  0  0  0  0  0  0  0
    7.8907    1.6845   -0.4639 C   0  0  0  0  0  0  0  0  0  0  0  0
    8.3701    1.5859    0.9366 C   0  0  0  0  0  0  0  0  0  0  0  0
    9.1736    0.4401    1.3653 C   0  0  0  0  0  0  0  0  0  0  0  0
   10.5509    0.2845    0.8843 C   0  0  0  0  0  0  0  0  0  0  0  0
   10.7553    0.1742   -0.5671 C   0  0  0  0  0  0  0  0  0  0  0  0
   12.2168   -0.0687   -0.9760 C   0  0  0  0  0  0  0  0  0  0  0  0
   12.6910   -1.3372   -0.3426 C   0  0  0  0  0  0  0  0  0  0  0  0
   14.1548   -1.5570   -0.7933 C   0  0  0  0  0  0  0  0  0  0  0  0
   14.6370   -2.8133   -0.1407 C   0  0  0  0  0  0  0  0  0  0  0  0
   13.7886   -3.9737   -0.5784 C   0  0  0  0  0  0  0  0  0  0  0  0
  -12.9055   -0.7963    3.9948 H   0  0  0  0  0  0  0  0  0  0  0  0
  -11.9852    0.3766    2.9607 H   0  0  0  0  0  0  0  0  0  0  0  0
  -11.2959   -1.2167    3.2992 H   0  0  0  0  0  0  0  0  0  0  0  0
  -12.8297   -2.3535    1.9013 H   0  0  0  0  0  0  0  0  0  0  0  0
  -13.9574   -0.8876    1.8646 H   0  0  0  0  0  0  0  0  0  0  0  0
  -11.0895   -1.0562    0.7562 H   0  0  0  0  0  0  0  0  0  0  0  0
  -12.1864    0.3596    0.6091 H   0  0  0  0  0  0  0  0  0  0  0  0
  -12.9201   -2.4206   -0.5128 H   0  0  0  0  0  0  0  0  0  0  0  0
  -13.8720   -0.8916   -0.5924 H   0  0  0  0  0  0  0  0  0  0  0  0
  -12.6788   -1.3300   -2.6635 H   0  0  0  0  0  0  0  0  0  0  0  0
  -12.2506    0.2583   -1.9175 H   0  0  0  0  0  0  0  0  0  0  0  0
  -10.1371   -0.7526   -1.0127 H   0  0  0  0  0  0  0  0  0  0  0  0
  -10.2558   -0.8929   -2.7792 H   0  0  0  0  0  0  0  0  0  0  0  0
  -11.1429   -3.2618   -2.5503 H   0  0  0  0  0  0  0  0  0  0  0  0
  -11.0760   -3.1387   -0.7759 H   0  0  0  0  0  0  0  0  0  0  0  0
   -8.6529   -2.8609   -2.6937 H   0  0  0  0  0  0  0  0  0  0  0  0
   -9.0590   -4.3056   -1.6664 H   0  0  0  0  0  0  0  0  0  0  0  0
   -8.3627   -1.4879   -0.7936 H   0  0  0  0  0  0  0  0  0  0  0  0
   -8.8917   -2.7957    0.3401 H   0  0  0  0  0  0  0  0  0  0  0  0
   -6.5925   -2.8905   -1.7853 H   0  0  0  0  0  0  0  0  0  0  0  0
   -7.1123   -4.2951   -0.8371 H   0  0  0  0  0  0  0  0  0  0  0  0
   -6.2471   -3.4378    1.2226 H   0  0  0  0  0  0  0  0  0  0  0  0
   -5.0397   -3.4968   -0.0839 H   0  0  0  0  0  0  0  0  0  0  0  0
   -5.1451   -0.9601   -0.2528 H   0  0  0  0  0  0  0  0  0  0  0  0
   -4.6423   -1.6547    1.2975 H   0  0  0  0  0  0  0  0  0  0  0  0
   -7.6226   -0.8717    1.0590 H   0  0  0  0  0  0  0  0  0  0  0  0
   -6.6183   -1.2791    2.4598 H   0  0  0  0  0  0  0  0  0  0  0  0
   -6.3422    1.2473    0.7222 H   0  0  0  0  0  0  0  0  0  0  0  0
   -7.2972    1.0912    2.1895 H   0  0  0  0  0  0  0  0  0  0  0  0
   -5.3663    2.2741    2.6156 H   0  0  0  0  0  0  0  0  0  0  0  0
   -5.2645    0.7600    3.5713 H   0  0  0  0  0  0  0  0  0  0  0  0
   -3.4356   -0.0069    1.9070 H   0  0  0  0  0  0  0  0  0  0  0  0
   -3.1321    1.5260    2.6905 H   0  0  0  0  0  0  0  0  0  0  0  0
   -4.4894    1.2990   -0.0758 H   0  0  0  0  0  0  0  0  0  0  0  0
   -4.0914    2.7962    0.7629 H   0  0  0  0  0  0  0  0  0  0  0  0
   -2.1603    0.5754   -0.1031 H   0  0  0  0  0  0  0  0  0  0  0  0
   -2.3344    2.1298   -0.9385 H   0  0  0  0  0  0  0  0  0  0  0  0
   -1.2924    1.7063    1.9252 H   0  0  0  0  0  0  0  0  0  0  0  0
   -1.6487    3.3034    1.1128 H   0  0  0  0  0  0  0  0  0  0  0  0
   -0.1732    2.6922   -0.7314 H   0  0  0  0  0  0  0  0  0  0  0  0
    0.1653    1.0756    0.0861 H   0  0  0  0  0  0  0  0  0  0  0  0
    0.8237    3.7784    1.3902 H   0  0  0  0  0  0  0  0  0  0  0  0
    1.1150    2.1409    1.9933 H   0  0  0  0  0  0  0  0  0  0  0  0
    3.1110    3.2151    1.1072 H   0  0  0  0  0  0  0  0  0  0  0  0
    2.3302    3.4595   -0.4505 H   0  0  0  0  0  0  0  0  0  0  0  0
    2.3229    0.8033   -0.6664 H   0  0  0  0  0  0  0  0  0  0  0  0
    3.1010    0.8031    0.9382 H   0  0  0  0  0  0  0  0  0  0  0  0
    4.9942    1.7909    0.1083 H   0  0  0  0  0  0  0  0  0  0  0  0
    4.5508    0.4312   -0.9124 H   0  0  0  0  0  0  0  0  0  0  0  0
    3.6736    3.2176   -1.8713 H   0  0  0  0  0  0  0  0  0  0  0  0
    3.6494    1.6744   -2.7044 H   0  0  0  0  0  0  0  0  0  0  0  0
    6.0140    1.3869   -2.6551 H   0  0  0  0  0  0  0  0  0  0  0  0
    5.4675    2.7449   -3.6482 H   0  0  0  0  0  0  0  0  0  0  0  0
    7.4458    3.4492   -2.6646 H   0  0  0  0  0  0  0  0  0  0  0  0
    6.1449    4.3636   -1.8818 H   0  0  0  0  0  0  0  0  0  0  0  0
    6.5706    3.2722    0.2897 H   0  0  0  0  0  0  0  0  0  0  0  0
    8.0484    3.7657   -0.4894 H   0  0  0  0  0  0  0  0  0  0  0  0
    7.1556    0.8427   -0.6155 H   0  0  0  0  0  0  0  0  0  0  0  0
    8.6275    1.6143   -1.2170 H   0  0  0  0  0  0  0  0  0  0  0  0
    8.9381    2.5692    1.1650 H   0  0  0  0  0  0  0  0  0  0  0  0
    7.4967    1.7109    1.6712 H   0  0  0  0  0  0  0  0  0  0  0  0
    8.6108   -0.5305    1.1096 H   0  0  0  0  0  0  0  0  0  0  0  0
    9.2305    0.4145    2.5201 H   0  0  0  0  0  0  0  0  0  0  0  0
   11.1683    1.1705    1.2834 H   0  0  0  0  0  0  0  0  0  0  0  0
   11.0300   -0.5764    1.4554 H   0  0  0  0  0  0  0  0  0  0  0  0
   10.1293   -0.5694   -1.0247 H   0  0  0  0  0  0  0  0  0  0  0  0
   10.6114    1.2352   -0.9778 H   0  0  0  0  0  0  0  0  0  0  0  0
   12.2625   -0.1181   -2.0842 H   0  0  0  0  0  0  0  0  0  0  0  0
   12.8537    0.7735   -0.6129 H   0  0  0  0  0  0  0  0  0  0  0  0
   12.7315   -1.1959    0.7646 H   0  0  0  0  0  0  0  0  0  0  0  0
   12.1317   -2.2145   -0.6598 H   0  0  0  0  0  0  0  0  0  0  0  0
   14.7514   -0.6603   -0.4973 H   0  0  0  0  0  0  0  0  0  0  0  0
   14.1196   -1.6671   -1.8946 H   0  0  0  0  0  0  0  0  0  0  0  0
   14.5061   -2.7124    0.9786 H   0  0  0  0  0  0  0  0  0  0  0  0
   15.7266   -2.9574   -0.3369 H   0  0  0  0  0  0  0  0  0  0  0  0
   13.0914   -4.2944    0.2444 H   0  0  0  0  0  0  0  0  0  0  0  0
   13.1819   -3.7534   -1.4650 H   0  0  0  0  0  0  0  0  0  0  0  0
   14.4435   -4.8699   -0.7619 H   0  0  0  0  0  0  0  0  0  0  0  0
  1  2  1  0
  2  3  1  0
  3  4  1  0
  4  5  1  0
  5  6  1  0
  6  7  1  0
  7  8  1  0
  8  9  1  0
  9 10  1  0
 10 11  1  0
 11 12  1  0
 12 13  1  0
 13 14  1  0
 14 15  1  0
 15 16  1  0
 16 17  1  0
 17 18  1  0
 18 19  1  0
 19 20  1  0
 20 21  1  0
 21 22  1  0
 22 23  1  0
 23 24  1  0
 24 25  1  0
 25 26  1  0
 26 27  1  0
 27 28  1  0
 28 29  1  0
 29 30  1  0
 30 31  1  0
 31 32  1  0
 32 33  1  0
 33 34  1  0
 34 35  1  0
 35 36  1  0
 36 37  1  0
 37 38  1  0
  1 39  1  0
  1 40  1  0
  1 41  1  0
  2 42  1  0
  2 43  1  0
  3 44  1  0
  3 45  1  0
  4 46  1  0
  4 47  1  0
  5 48  1  0
  5 49  1  0
  6 50  1  0
  6 51  1  0
  7 52  1  0
  7 53  1  0
  8 54  1  0
  8 55  1  0
  9 56  1  0
  9 57  1  0
 10 58  1  0
 10 59  1  0
 11 60  1  0
 11 61  1  0
 12 62  1  0
 12 63  1  0
 13 64  1  0
 13 65  1  0
 14 66  1  0
 14 67  1  0
 15 68  1  0
 15 69  1  0
 16 70  1  0
 16 71  1  0
 17 72  1  0
 17 73  1  0
 18 74  1  0
 18 75  1  0
 19 76  1  0
 19 77  1  0
 20 78  1  0
 20 79  1  0
 21 80  1  0
 21 81  1  0
 22 82  1  0
 22 83  1  0
 23 84  1  0
 23 85  1  0
 24 86  1  0
 24 87  1  0
 25 88  1  0
 25 89  1  0
 26 90  1  0
 26 91  1  0
 27 92  1  0
 27 93  1  0
 28 94  1  0
 28 95  1  0
 29 96  1  0
 29 97  1  0
 30 98  1  0
 30 99  1  0
 31100  1  0
 31101  1  0
 32102  1  0
 32103  1  0
 33104  1  0
 33105  1  0
 34106  1  0
 34107  1  0
 35108  1  0
 35109  1  0
 36110  1  0
 36111  1  0
 37112  1  0
 37113  1  0
 38114  1  0
 38115  1  0
 38116  1  0
M  END
