
     RDKit          3D

 38 37  0  0  0  0  0  0  0  0999 V2000
    4.7087    1.1110   -0.9231 C   0  0  0  0  0  0  0  0  0  0  0  0
    4.8839    0.7068    0.5200 C   0  0  0  0  0  0  0  0  0  0  0  0
    3.9904   -0.4975    0.8417 C   0  0  0  0  0  0  0  0  0  0  0  0
    2.5437   -0.1235    0.5990 C   0  0  0  0  0  0  0  0  0  0  0  0
    1.6634   -1.3026    0.9136 C   0  0  0  0  0  0  0  0  0  0  0  0
    0.2052   -1.0331    0.7089 C   0  0  0  0  0  0  0  0  0  0  0  0
   -0.1208   -0.6586   -0.6974 C   0  0  0  0  0  0  0  0  0  0  0  0
   -1.5811   -0.3889   -0.9185 C   0  0  0  0  0  0  0  0  0  0  0  0
   -2.0927    0.7430   -0.0609 C   0  0  0  0  0  0  0  0  0  0  0  0
   -3.5641    1.0016   -0.2957 C   0  0  0  0  0  0  0  0  0  0  0  0
   -4.4087   -0.1938    0.0167 C   0  0  0  0  0  0  0  0  0  0  0  0
   -5.8507    0.1726   -0.2511 C   0  0  0  0  0  0  0  0  0  0  0  0
    5.5432    1.7980   -1.1679 H   0  0  0  0  0  0  0  0  0  0  0  0
    3.7650    1.6827   -1.0361 H   0  0  0  0  0  0  0  0  0  0  0  0
    4.7293    0.1859   -1.5381 H   0  0  0  0  0  0  0  0  0  0  0  0
    4.5083    1.5477    1.1568 H   0  0  0  0  0  0  0  0  0  0  0  0
    5.9358    0.4836    0.7134 H   0  0  0  0  0  0  0  0  0  0  0  0
    4.2007   -0.7821    1.8791 H   0  0  0  0  0  0  0  0  0  0  0  0
    4.2958   -1.3349    0.1892 H   0  0  0  0  0  0  0  0  0  0  0  0
    2.2687    0.7392    1.2162 H   0  0  0  0  0  0  0  0  0  0  0  0
    2.4731    0.1091   -0.4988 H   0  0  0  0  0  0  0  0  0  0  0  0
    1.9856   -2.1345    0.2526 H   0  0  0  0  0  0  0  0  0  0  0  0
    1.8136   -1.5437    1.9877 H   0  0  0  0  0  0  0  0  0  0  0  0
   -0.0708   -0.1687    1.3762 H   0  0  0  0  0  0  0  0  0  0  0  0
   -0.3423   -1.9515    1.0205 H   0  0  0  0  0  0  0  0  0  0  0  0
    0.1295   -1.5542   -1.3387 H   0  0  0  0  0  0  0  0  0  0  0  0
    0.5287    0.1516   -1.0595 H   0  0  0  0  0  0  0  0  0  0  0  0
   -1.6979   -0.0628   -1.9760 H   0  0  0  0  0  0  0  0  0  0  0  0
   -2.1383   -1.3138   -0.8004 H   0  0  0  0  0  0  0  0  0  0  0  0
   -1.5349    1.6661   -0.3208 H   0  0  0  0  0  0  0  0  0  0  0  0
   -1.9377    0.5723    1.0237 H   0  0  0  0  0  0  0  0  0  0  0  0
   -3.7510    1.2703   -1.3598 H   0  0  0  0  0  0  0  0  0  0  0  0
   -3.9272    1.8545    0.3036 H   0  0  0  0  0  0  0  0  0  0  0  0
   -4.1545   -1.0408   -0.6562 H   0  0  0  0  0  0  0  0  0  0  0  0
   -4.3522   -0.4863    1.0933 H   0  0  0  0  0  0  0  0  0  0  0  0
   -6.3136    0.5632    0.6974 H   0  0  0  0  0  0  0  0  0  0  0  0
   -6.3859   -0.7566   -0.5049 H   0  0  0  0  0  0  0  0  0  0  0  0
   -5.9480    0.9687   -1.0139 H   0  0  0  0  0  0  0  0  0  0  0  0
  1  2  1  0
  2  3  1  0
  3  4  1  0
  4  5  1  0
  5  6  1  0
  6  7  1  0
  7  8  1  0
  8  9  1  0
  9 10  1  0
 10 11  1  0
 11 12  1  0
  1 13  1  0
  1 14  1  0
  1 15  1  0
  2 16  1  0
  2 17  1  0
  3 18  1  0
  3 19  1  0
  4 20  1  0
  4 21  1  0
  5 22  1  0
  5 23  1  0
  6 24  1  0
  6 25  1  0
  7 26  1  0
  7 27  1  0
  8 28  1  0
  8 29  1  0
  9 30  1  0
  9 31  1  0
 10 32  1  0
 10 33  1  0
 11 34  1  0
 11 35  1  0
 12 36  1  0
 12 37  1  0
 12 38  1  0
M  END
