
     RDKit          3D

113112  0  0  0  0  0  0  0  0999 V2000
  -15.3605   -0.2488    1.4317 C   0  0  0  0  0  0  0  0  0  0  0  0
  -14.4338    0.2462    2.5246 C   0  0  0  0  0  0  0  0  0  0  0  0
  -13.0184    0.1244    1.9404 C   0  0  0  0  0  0  0  0  0  0  0  0
  -11.9986    0.5649    2.9178 C   0  0  0  0  0  0  0  0  0  0  0  0
  -10.5899    0.4692    2.5127 C   0  0  0  0  0  0  0  0  0  0  0  0
  -10.0778    1.3457    1.4582 C   0  0  0  0  0  0  0  0  0  0  0  0
  -10.6910    1.3797    0.1094 C   0  0  0  0  0  0  0  0  0  0  0  0
   -9.8981    2.1227   -0.9046 C   0  0  0  0  0  0  0  0  0  0  0  0
   -8.7540    1.5457   -1.5652 C   0  0  0  0  0  0  0  0  0  0  0  0
   -7.6478    0.8665   -0.8755 C   0  0  0  0  0  0  0  0  0  0  0  0
   -7.8996   -0.4867   -0.3385 C   0  0  0  0  0  0  0  0  0  0  0  0
   -6.9562   -1.2282    0.4775 C   0  0  0  0  0  0  0  0  0  0  0  0
   -5.6498   -1.7235    0.1830 C   0  0  0  0  0  0  0  0  0  0  0  0
   -4.3854   -1.0565   -0.0687 C   0  0  0  0  0  0  0  0  0  0  0  0
   -4.2924   -0.1228   -1.1926 C   0  0  0  0  0  0  0  0  0  0  0  0
   -2.9468    0.3745   -1.6082 C   0  0  0  0  0  0  0  0  0  0  0  0
   -2.1131   -0.6189   -2.3216 C   0  0  0  0  0  0  0  0  0  0  0  0
   -1.7677   -1.8950   -1.6838 C   0  0  0  0  0  0  0  0  0  0  0  0
   -0.9041   -2.6898   -2.6734 C   0  0  0  0  0  0  0  0  0  0  0  0
    0.3444   -1.9776   -3.0036 C   0  0  0  0  0  0  0  0  0  0  0  0
    1.1851   -1.7808   -1.7494 C   0  0  0  0  0  0  0  0  0  0  0  0
    2.4766   -1.0519   -2.1267 C   0  0  0  0  0  0  0  0  0  0  0  0
    3.3898   -0.8409   -0.9617 C   0  0  0  0  0  0  0  0  0  0  0  0
    4.6138   -0.0965   -1.4154 C   0  0  0  0  0  0  0  0  0  0  0  0
    5.3453   -0.8743   -2.4537 C   0  0  0  0  0  0  0  0  0  0  0  0
    6.5389   -0.1140   -2.9356 C   0  0  0  0  0  0  0  0  0  0  0  0
    7.5124    0.1540   -1.8282 C   0  0  0  0  0  0  0  0  0  0  0  0
    8.0079   -1.1541   -1.2706 C   0  0  0  0  0  0  0  0  0  0  0  0
    9.0277   -0.9581   -0.1646 C   0  0  0  0  0  0  0  0  0  0  0  0
   10.2283   -0.1978   -0.6439 C   0  0  0  0  0  0  0  0  0  0  0  0
   11.2746   -0.0369    0.5060 C   0  0  0  0  0  0  0  0  0  0  0  0
   12.4351    0.7274    0.0034 C   0  0  0  0  0  0  0  0  0  0  0  0
   13.6199    0.9618    0.8130 C   0  0  0  0  0  0  0  0  0  0  0  0
   13.6104    1.6550    2.1033 C   0  0  0  0  0  0  0  0  0  0  0  0
   12.8859    0.9736    3.1992 C   0  0  0  0  0  0  0  0  0  0  0  0
   12.9309    1.7736    4.5037 C   0  0  0  0  0  0  0  0  0  0  0  0
   14.3035    2.0188    5.0146 C   0  0  0  0  0  0  0  0  0  0  0  0
  -15.3014   -1.3776    1.4303 H   0  0  0  0  0  0  0  0  0  0  0  0
  -14.9262    0.0245    0.4349 H   0  0  0  0  0  0  0  0  0  0  0  0
  -16.3878    0.1106    1.5349 H   0  0  0  0  0  0  0  0  0  0  0  0
  -14.6585    1.2902    2.8151 H   0  0  0  0  0  0  0  0  0  0  0  0
  -14.4816   -0.4752    3.3594 H   0  0  0  0  0  0  0  0  0  0  0  0
  -13.0348    0.6857    1.0368 H   0  0  0  0  0  0  0  0  0  0  0  0
  -12.8997   -0.9825    1.7754 H   0  0  0  0  0  0  0  0  0  0  0  0
  -12.1815    1.6779    3.1427 H   0  0  0  0  0  0  0  0  0  0  0  0
  -12.1812    0.0995    3.9328 H   0  0  0  0  0  0  0  0  0  0  0  0
  -10.4157   -0.6245    2.2253 H   0  0  0  0  0  0  0  0  0  0  0  0
   -9.9359    0.5511    3.4629 H   0  0  0  0  0  0  0  0  0  0  0  0
  -10.1690    2.4670    1.8740 H   0  0  0  0  0  0  0  0  0  0  0  0
   -8.9776    1.2853    1.3975 H   0  0  0  0  0  0  0  0  0  0  0  0
  -11.6704    1.9938    0.1460 H   0  0  0  0  0  0  0  0  0  0  0  0
  -11.0291    0.3824   -0.2019 H   0  0  0  0  0  0  0  0  0  0  0  0
  -10.6315    2.5370   -1.7196 H   0  0  0  0  0  0  0  0  0  0  0  0
   -9.6144    3.1359   -0.3967 H   0  0  0  0  0  0  0  0  0  0  0  0
   -8.3109    2.3636   -2.2648 H   0  0  0  0  0  0  0  0  0  0  0  0
   -9.1233    0.7985   -2.3837 H   0  0  0  0  0  0  0  0  0  0  0  0
   -7.1468    1.4981   -0.1061 H   0  0  0  0  0  0  0  0  0  0  0  0
   -6.8445    0.7942   -1.7046 H   0  0  0  0  0  0  0  0  0  0  0  0
   -8.0714   -1.1707   -1.3235 H   0  0  0  0  0  0  0  0  0  0  0  0
   -8.9146   -0.5796    0.0757 H   0  0  0  0  0  0  0  0  0  0  0  0
   -6.8642   -0.6330    1.4850 H   0  0  0  0  0  0  0  0  0  0  0  0
   -7.5667   -2.1460    0.9042 H   0  0  0  0  0  0  0  0  0  0  0  0
   -5.7525   -2.5413   -0.6845 H   0  0  0  0  0  0  0  0  0  0  0  0
   -5.3987   -2.4944    1.0327 H   0  0  0  0  0  0  0  0  0  0  0  0
   -3.4993   -1.7294    0.1001 H   0  0  0  0  0  0  0  0  0  0  0  0
   -4.2289   -0.3951    0.9295 H   0  0  0  0  0  0  0  0  0  0  0  0
   -4.8994   -0.4411   -2.0941 H   0  0  0  0  0  0  0  0  0  0  0  0
   -4.8108    0.8451   -0.8331 H   0  0  0  0  0  0  0  0  0  0  0  0
   -3.0511    1.2604   -2.3175 H   0  0  0  0  0  0  0  0  0  0  0  0
   -2.4181    0.7720   -0.6823 H   0  0  0  0  0  0  0  0  0  0  0  0
   -1.1904   -0.1086   -2.7605 H   0  0  0  0  0  0  0  0  0  0  0  0
   -2.7299   -0.8936   -3.2593 H   0  0  0  0  0  0  0  0  0  0  0  0
   -1.2980   -1.8301   -0.7162 H   0  0  0  0  0  0  0  0  0  0  0  0
   -2.6781   -2.5864   -1.6013 H   0  0  0  0  0  0  0  0  0  0  0  0
   -0.6865   -3.6979   -2.2404 H   0  0  0  0  0  0  0  0  0  0  0  0
   -1.5043   -2.9137   -3.5905 H   0  0  0  0  0  0  0  0  0  0  0  0
    0.2600   -1.0772   -3.6225 H   0  0  0  0  0  0  0  0  0  0  0  0
    0.9695   -2.7224   -3.6197 H   0  0  0  0  0  0  0  0  0  0  0  0
    0.5977   -1.2203   -1.0225 H   0  0  0  0  0  0  0  0  0  0  0  0
    1.4418   -2.7754   -1.3559 H   0  0  0  0  0  0  0  0  0  0  0  0
    2.1719   -0.0315   -2.5023 H   0  0  0  0  0  0  0  0  0  0  0  0
    2.9033   -1.6378   -2.9573 H   0  0  0  0  0  0  0  0  0  0  0  0
    3.7472   -1.8263   -0.5609 H   0  0  0  0  0  0  0  0  0  0  0  0
    2.9277   -0.2666   -0.1445 H   0  0  0  0  0  0  0  0  0  0  0  0
    5.2513    0.1116   -0.5325 H   0  0  0  0  0  0  0  0  0  0  0  0
    4.3242    0.9141   -1.8311 H   0  0  0  0  0  0  0  0  0  0  0  0
    4.7185   -1.0931   -3.3539 H   0  0  0  0  0  0  0  0  0  0  0  0
    5.5911   -1.8768   -2.0411 H   0  0  0  0  0  0  0  0  0  0  0  0
    6.1750    0.8303   -3.4019 H   0  0  0  0  0  0  0  0  0  0  0  0
    7.0949   -0.7227   -3.6928 H   0  0  0  0  0  0  0  0  0  0  0  0
    8.3735    0.7693   -2.2082 H   0  0  0  0  0  0  0  0  0  0  0  0
    7.0384    0.7910   -1.0614 H   0  0  0  0  0  0  0  0  0  0  0  0
    8.4230   -1.8189   -2.0304 H   0  0  0  0  0  0  0  0  0  0  0  0
    7.1282   -1.6485   -0.7631 H   0  0  0  0  0  0  0  0  0  0  0  0
    8.5303   -0.3783    0.6361 H   0  0  0  0  0  0  0  0  0  0  0  0
    9.3097   -1.9279    0.2999 H   0  0  0  0  0  0  0  0  0  0  0  0
   10.7148   -0.7940   -1.4443 H   0  0  0  0  0  0  0  0  0  0  0  0
    9.9394    0.8133   -0.9885 H   0  0  0  0  0  0  0  0  0  0  0  0
   11.4375   -1.0250    0.9005 H   0  0  0  0  0  0  0  0  0  0  0  0
   10.6699    0.5840    1.2406 H   0  0  0  0  0  0  0  0  0  0  0  0
   12.0469    1.6877   -0.4906 H   0  0  0  0  0  0  0  0  0  0  0  0
   12.7869    0.1589   -0.9323 H   0  0  0  0  0  0  0  0  0  0  0  0
   14.1832   -0.0412    0.9665 H   0  0  0  0  0  0  0  0  0  0  0  0
   14.3908    1.4728    0.1114 H   0  0  0  0  0  0  0  0  0  0  0  0
   13.3548    2.7488    2.0297 H   0  0  0  0  0  0  0  0  0  0  0  0
   14.7035    1.7035    2.4469 H   0  0  0  0  0  0  0  0  0  0  0  0
   13.4153    0.0041    3.4739 H   0  0  0  0  0  0  0  0  0  0  0  0
   11.8357    0.7272    3.0601 H   0  0  0  0  0  0  0  0  0  0  0  0
   12.3609    2.7123    4.3673 H   0  0  0  0  0  0  0  0  0  0  0  0
   12.3346    1.1811    5.2580 H   0  0  0  0  0  0  0  0  0  0  0  0
   14.3021    1.8639    6.1299 H   0  0  0  0  0  0  0  0  0  0  0  0
   14.6183    3.0938    4.8982 H   0  0  0  0  0  0  0  0  0  0  0  0
   15.0670    1.3290    4.6111 H   0  0  0  0  0  0  0  0  0  0  0  0
  1  2  1  0
  2  3  1  0
  3  4  1  0
  4  5  1  0
  5  6  1  0
  6  7  1  0
  7  8  1  0
  8  9  1  0
  9 10  1  0
 10 11  1  0
 11 12  1  0
 12 13  1  0
 13 14  1  0
 14 15  1  0
 15 16  1  0
 16 17  1  0
 17 18  1  0
 18 19  1  0
 19 20  1  0
 20 21  1  0
 21 22  1  0
 22 23  1  0
 23 24  1  0
 24 25  1  0
 25 26  1  0
 26 27  1  0
 27 28  1  0
 28 29  1  0
 29 30  1  0
 30 31  1  0
 31 32  1  0
 32 33  1  0
 33 34  1  0
 34 35  1  0
 35 36  1  0
 36 37  1  0
  1 38  1  0
  1 39  1  0
  1 40  1  0
  2 41  1  0
  2 42  1  0
  3 43  1  0
  3 44  1  0
  4 45  1  0
  4 46  1  0
  5 47  1  0
  5 48  1  0
  6 49  1  0
  6 50  1  0
  7 51  1  0
  7 52  1  0
  8 53  1  0
  8 54  1  0
  9 55  1  0
  9 56  1  0
 10 57  1  0
 10 58  1  0
 11 59  1  0
 11 60  1  0
 12 61  1  0
 12 62  1  0
 13 63  1  0
 13 64  1  0
 14 65  1  0
 14 66  1  0
 15 67  1  0
 15 68  1  0
 16 69  1  0
 16 70  1  0
 17 71  1  0
 17 72  1  0
 18 73  1  0
 18 74  1  0
 19 75  1  0
 19 76  1  0
 20 77  1  0
 20 78  1  0
 21 79  1  0
 21 80  1  0
 22 81  1  0
 22 82  1  0
 23 83  1  0
 23 84  1  0
 24 85  1  0
 24 86  1  0
 25 87  1  0
 25 88  1  0
 26 89  1  0
 26 90  1  0
 27 91  1  0
 27 92  1  0
 28 93  1  0
 28 94  1  0
 29 95  1  0
 29 96  1  0
 30 97  1  0
 30 98  1  0
 31 99  1  0
 31100  1  0
 32101  1  0
 32102  1  0
 33103  1  0
 33104  1  0
 34105  1  0
 34106  1  0
 35107  1  0
 35108  1  0
 36109  1  0
 36110  1  0
 37111  1  0
 37112  1  0
 37113  1  0
M  END
