
     RDKit          3D

 98 97  0  0  0  0  0  0  0  0999 V2000
  -10.0294    0.3890   -5.0550 C   0  0  0  0  0  0  0  0  0  0  0  0
   -8.9503   -0.6717   -5.0438 C   0  0  0  0  0  0  0  0  0  0  0  0
   -8.1062   -0.5413   -3.7911 C   0  0  0  0  0  0  0  0  0  0  0  0
   -8.9059   -0.7002   -2.5439 C   0  0  0  0  0  0  0  0  0  0  0  0
   -8.0644   -0.5581   -1.3124 C   0  0  0  0  0  0  0  0  0  0  0  0
   -6.9670   -1.5587   -1.1973 C   0  0  0  0  0  0  0  0  0  0  0  0
   -6.1797   -1.3343    0.0781 C   0  0  0  0  0  0  0  0  0  0  0  0
   -5.5552    0.0215    0.1358 C   0  0  0  0  0  0  0  0  0  0  0  0
   -4.7824    0.1154    1.4617 C   0  0  0  0  0  0  0  0  0  0  0  0
   -4.1792    1.5019    1.4572 C   0  0  0  0  0  0  0  0  0  0  0  0
   -3.3700    1.8092    2.6893 C   0  0  0  0  0  0  0  0  0  0  0  0
   -2.2187    0.8818    2.8845 C   0  0  0  0  0  0  0  0  0  0  0  0
   -1.3926    1.1453    4.0892 C   0  0  0  0  0  0  0  0  0  0  0  0
   -0.7492    2.4849    4.1542 C   0  0  0  0  0  0  0  0  0  0  0  0
    0.1670    2.7358    3.0172 C   0  0  0  0  0  0  0  0  0  0  0  0
    1.3131    1.7529    2.8813 C   0  0  0  0  0  0  0  0  0  0  0  0
    2.1424    1.7870    4.0984 C   0  0  0  0  0  0  0  0  0  0  0  0
    3.3241    0.8966    4.1506 C   0  0  0  0  0  0  0  0  0  0  0  0
    4.4495    1.0891    3.2368 C   0  0  0  0  0  0  0  0  0  0  0  0
    4.2981    1.0015    1.7755 C   0  0  0  0  0  0  0  0  0  0  0  0
    3.7327   -0.2990    1.2548 C   0  0  0  0  0  0  0  0  0  0  0  0
    4.6242   -1.4415    1.6824 C   0  0  0  0  0  0  0  0  0  0  0  0
    4.1796   -2.7827    1.2284 C   0  0  0  0  0  0  0  0  0  0  0  0
    4.1068   -2.9947   -0.2500 C   0  0  0  0  0  0  0  0  0  0  0  0
    5.4639   -2.8074   -0.8808 C   0  0  0  0  0  0  0  0  0  0  0  0
    5.5090   -3.0350   -2.3481 C   0  0  0  0  0  0  0  0  0  0  0  0
    4.6536   -2.1639   -3.1895 C   0  0  0  0  0  0  0  0  0  0  0  0
    4.9911   -0.7147   -3.0652 C   0  0  0  0  0  0  0  0  0  0  0  0
    6.4172   -0.4130   -3.4668 C   0  0  0  0  0  0  0  0  0  0  0  0
    6.7181    1.0639   -3.3697 C   0  0  0  0  0  0  0  0  0  0  0  0
    6.5497    1.6378   -2.0004 C   0  0  0  0  0  0  0  0  0  0  0  0
    7.4492    1.0029   -0.9641 C   0  0  0  0  0  0  0  0  0  0  0  0
   -9.5854    1.3693   -4.8170 H   0  0  0  0  0  0  0  0  0  0  0  0
  -10.7937    0.1348   -4.2982 H   0  0  0  0  0  0  0  0  0  0  0  0
  -10.4912    0.4961   -6.0598 H   0  0  0  0  0  0  0  0  0  0  0  0
   -8.2635   -0.4237   -5.8871 H   0  0  0  0  0  0  0  0  0  0  0  0
   -9.3334   -1.6779   -5.2039 H   0  0  0  0  0  0  0  0  0  0  0  0
   -7.2554   -1.2212   -3.7953 H   0  0  0  0  0  0  0  0  0  0  0  0
   -7.6799    0.4959   -3.7818 H   0  0  0  0  0  0  0  0  0  0  0  0
   -9.4195   -1.7039   -2.5188 H   0  0  0  0  0  0  0  0  0  0  0  0
   -9.7315    0.0628   -2.4677 H   0  0  0  0  0  0  0  0  0  0  0  0
   -7.5999    0.4518   -1.3029 H   0  0  0  0  0  0  0  0  0  0  0  0
   -8.6957   -0.5797   -0.3820 H   0  0  0  0  0  0  0  0  0  0  0  0
   -7.4221   -2.5805   -1.0914 H   0  0  0  0  0  0  0  0  0  0  0  0
   -6.3258   -1.5923   -2.0819 H   0  0  0  0  0  0  0  0  0  0  0  0
   -5.3852   -2.1094    0.1610 H   0  0  0  0  0  0  0  0  0  0  0  0
   -6.8616   -1.4984    0.9242 H   0  0  0  0  0  0  0  0  0  0  0  0
   -4.9235    0.2208   -0.7278 H   0  0  0  0  0  0  0  0  0  0  0  0
   -6.3679    0.7985    0.2645 H   0  0  0  0  0  0  0  0  0  0  0  0
   -4.0461   -0.6909    1.4835 H   0  0  0  0  0  0  0  0  0  0  0  0
   -5.5552    0.0564    2.2561 H   0  0  0  0  0  0  0  0  0  0  0  0
   -3.6134    1.6103    0.5117 H   0  0  0  0  0  0  0  0  0  0  0  0
   -5.0500    2.2039    1.3574 H   0  0  0  0  0  0  0  0  0  0  0  0
   -4.0779    1.8314    3.5407 H   0  0  0  0  0  0  0  0  0  0  0  0
   -2.9956    2.8460    2.5648 H   0  0  0  0  0  0  0  0  0  0  0  0
   -2.6087   -0.1534    2.9489 H   0  0  0  0  0  0  0  0  0  0  0  0
   -1.5877    0.9251    1.9728 H   0  0  0  0  0  0  0  0  0  0  0  0
   -0.6248    0.3671    4.2244 H   0  0  0  0  0  0  0  0  0  0  0  0
   -2.0258    1.0633    5.0264 H   0  0  0  0  0  0  0  0  0  0  0  0
   -0.1860    2.5510    5.1062 H   0  0  0  0  0  0  0  0  0  0  0  0
   -1.5113    3.3116    4.2696 H   0  0  0  0  0  0  0  0  0  0  0  0
   -0.3824    2.6599    2.0318 H   0  0  0  0  0  0  0  0  0  0  0  0
    0.5978    3.7604    3.0737 H   0  0  0  0  0  0  0  0  0  0  0  0
    1.7999    1.9050    1.9194 H   0  0  0  0  0  0  0  0  0  0  0  0
    0.8023    0.7306    2.8726 H   0  0  0  0  0  0  0  0  0  0  0  0
    1.5062    1.6162    5.0335 H   0  0  0  0  0  0  0  0  0  0  0  0
    2.4865    2.8696    4.2273 H   0  0  0  0  0  0  0  0  0  0  0  0
    3.7434    0.9579    5.2215 H   0  0  0  0  0  0  0  0  0  0  0  0
    2.9479   -0.1788    4.1419 H   0  0  0  0  0  0  0  0  0  0  0  0
    4.8340    2.1597    3.4309 H   0  0  0  0  0  0  0  0  0  0  0  0
    5.3494    0.4939    3.6034 H   0  0  0  0  0  0  0  0  0  0  0  0
    3.8940    1.9120    1.3407 H   0  0  0  0  0  0  0  0  0  0  0  0
    5.3829    0.9968    1.3735 H   0  0  0  0  0  0  0  0  0  0  0  0
    2.7119   -0.4258    1.6281 H   0  0  0  0  0  0  0  0  0  0  0  0
    3.7479   -0.2531    0.1470 H   0  0  0  0  0  0  0  0  0  0  0  0
    5.6440   -1.2287    1.3329 H   0  0  0  0  0  0  0  0  0  0  0  0
    4.6885   -1.4567    2.8052 H   0  0  0  0  0  0  0  0  0  0  0  0
    4.9107   -3.5515    1.6188 H   0  0  0  0  0  0  0  0  0  0  0  0
    3.1989   -3.0166    1.7013 H   0  0  0  0  0  0  0  0  0  0  0  0
    3.6986   -4.0129   -0.4179 H   0  0  0  0  0  0  0  0  0  0  0  0
    3.4174   -2.2356   -0.7125 H   0  0  0  0  0  0  0  0  0  0  0  0
    5.8189   -1.8133   -0.5953 H   0  0  0  0  0  0  0  0  0  0  0  0
    6.1145   -3.6039   -0.4145 H   0  0  0  0  0  0  0  0  0  0  0  0
    5.3347   -4.1179   -2.5631 H   0  0  0  0  0  0  0  0  0  0  0  0
    6.5789   -2.8524   -2.6646 H   0  0  0  0  0  0  0  0  0  0  0  0
    4.8328   -2.4793   -4.2594 H   0  0  0  0  0  0  0  0  0  0  0  0
    3.5640   -2.3580   -3.0423 H   0  0  0  0  0  0  0  0  0  0  0  0
    4.8231   -0.3004   -2.0633 H   0  0  0  0  0  0  0  0  0  0  0  0
    4.3284   -0.1722   -3.8053 H   0  0  0  0  0  0  0  0  0  0  0  0
    6.6641   -0.7384   -4.4901 H   0  0  0  0  0  0  0  0  0  0  0  0
    7.1326   -0.9160   -2.7666 H   0  0  0  0  0  0  0  0  0  0  0  0
    7.7690    1.1820   -3.7317 H   0  0  0  0  0  0  0  0  0  0  0  0
    6.0150    1.5665   -4.0759 H   0  0  0  0  0  0  0  0  0  0  0  0
    5.4978    1.6805   -1.6717 H   0  0  0  0  0  0  0  0  0  0  0  0
    6.8726    2.7163   -2.0711 H   0  0  0  0  0  0  0  0  0  0  0  0
    6.8930    0.2905   -0.3408 H   0  0  0  0  0  0  0  0  0  0  0  0
    7.8032    1.7973   -0.2442 H   0  0  0  0  0  0  0  0  0  0  0  0
    8.3564    0.5513   -1.4171 H   0  0  0  0  0  0  0  0  0  0  0  0
  1  2  1  0
  2  3  1  0
  3  4  1  0
  4  5  1  0
  5  6  1  0
  6  7  1  0
  7  8  1  0
  8  9  1  0
  9 10  1  0
 10 11  1  0
 11 12  1  0
 12 13  1  0
 13 14  1  0
 14 15  1  0
 15 16  1  0
 16 17  1  0
 17 18  1  0
 18 19  1  0
 19 20  1  0
 20 21  1  0
 21 22  1  0
 22 23  1  0
 23 24  1  0
 24 25  1  0
 25 26  1  0
 26 27  1  0
 27 28  1  0
 28 29  1  0
 29 30  1  0
 30 31  1  0
 31 32  1  0
  1 33  1  0
  1 34  1  0
  1 35  1  0
  2 36  1  0
  2 37  1  0
  3 38  1  0
  3 39  1  0
  4 40  1  0
  4 41  1  0
  5 42  1  0
  5 43  1  0
  6 44  1  0
  6 45  1  0
  7 46  1  0
  7 47  1  0
  8 48  1  0
  8 49  1  0
  9 50  1  0
  9 51  1  0
 10 52  1  0
 10 53  1  0
 11 54  1  0
 11 55  1  0
 12 56  1  0
 12 57  1  0
 13 58  1  0
 13 59  1  0
 14 60  1  0
 14 61  1  0
 15 62  1  0
 15 63  1  0
 16 64  1  0
 16 65  1  0
 17 66  1  0
 17 67  1  0
 18 68  1  0
 18 69  1  0
 19 70  1  0
 19 71  1  0
 20 72  1  0
 20 73  1  0
 21 74  1  0
 21 75  1  0
 22 76  1  0
 22 77  1  0
 23 78  1  0
 23 79  1  0
 24 80  1  0
 24 81  1  0
 25 82  1  0
 25 83  1  0
 26 84  1  0
 26 85  1  0
 27 86  1  0
 27 87  1  0
 28 88  1  0
 28 89  1  0
 29 90  1  0
 29 91  1  0
 30 92  1  0
 30 93  1  0
 31 94  1  0
 31 95  1  0
 32 96  1  0
 32 97  1  0
 32 98  1  0
M  END
