
     RDKit          3D

 71 70  0  0  0  0  0  0  0  0999 V2000
   -9.9235    0.2130   -0.6224 C   0  0  0  0  0  0  0  0  0  0  0  0
   -8.7335    0.3069    0.3010 C   0  0  0  0  0  0  0  0  0  0  0  0
   -7.7225    1.2703   -0.2329 C   0  0  0  0  0  0  0  0  0  0  0  0
   -7.1560    0.9663   -1.5507 C   0  0  0  0  0  0  0  0  0  0  0  0
   -6.4669   -0.2923   -1.8266 C   0  0  0  0  0  0  0  0  0  0  0  0
   -5.2647   -0.6978   -1.0812 C   0  0  0  0  0  0  0  0  0  0  0  0
   -5.3652   -0.9404    0.3730 C   0  0  0  0  0  0  0  0  0  0  0  0
   -4.0517   -1.3628    1.0030 C   0  0  0  0  0  0  0  0  0  0  0  0
   -2.9577   -0.3664    0.8598 C   0  0  0  0  0  0  0  0  0  0  0  0
   -1.7033   -0.8608    1.5134 C   0  0  0  0  0  0  0  0  0  0  0  0
   -1.1673   -2.1438    0.9561 C   0  0  0  0  0  0  0  0  0  0  0  0
    0.0841   -2.5055    1.7086 C   0  0  0  0  0  0  0  0  0  0  0  0
    1.1477   -1.4667    1.6012 C   0  0  0  0  0  0  0  0  0  0  0  0
    1.5552   -1.2444    0.1782 C   0  0  0  0  0  0  0  0  0  0  0  0
    2.6372   -0.1784    0.1794 C   0  0  0  0  0  0  0  0  0  0  0  0
    3.0875    0.0850   -1.2505 C   0  0  0  0  0  0  0  0  0  0  0  0
    4.1566    1.1347   -1.2877 C   0  0  0  0  0  0  0  0  0  0  0  0
    5.3934    0.7432   -0.4965 C   0  0  0  0  0  0  0  0  0  0  0  0
    6.3891    1.8580   -0.6032 C   0  0  0  0  0  0  0  0  0  0  0  0
    7.6305    1.5372    0.1686 C   0  0  0  0  0  0  0  0  0  0  0  0
    8.2736    0.2835   -0.3655 C   0  0  0  0  0  0  0  0  0  0  0  0
    9.5356    0.0139    0.4475 C   0  0  0  0  0  0  0  0  0  0  0  0
   10.4378    1.2121    0.2709 C   0  0  0  0  0  0  0  0  0  0  0  0
  -10.8595    0.5052   -0.1048 H   0  0  0  0  0  0  0  0  0  0  0  0
   -9.7641    0.9060   -1.4711 H   0  0  0  0  0  0  0  0  0  0  0  0
  -10.0573   -0.8274   -1.0089 H   0  0  0  0  0  0  0  0  0  0  0  0
   -9.0632    0.6872    1.2969 H   0  0  0  0  0  0  0  0  0  0  0  0
   -8.3534   -0.7129    0.4644 H   0  0  0  0  0  0  0  0  0  0  0  0
   -6.9855    1.6551    0.4866 H   0  0  0  0  0  0  0  0  0  0  0  0
   -8.3665    2.2253   -0.4156 H   0  0  0  0  0  0  0  0  0  0  0  0
   -7.9357    1.1082   -2.3527 H   0  0  0  0  0  0  0  0  0  0  0  0
   -6.4233    1.8025   -1.7897 H   0  0  0  0  0  0  0  0  0  0  0  0
   -7.1585   -1.1863   -1.8583 H   0  0  0  0  0  0  0  0  0  0  0  0
   -6.1597   -0.2303   -2.9310 H   0  0  0  0  0  0  0  0  0  0  0  0
   -4.4068    0.0317   -1.2633 H   0  0  0  0  0  0  0  0  0  0  0  0
   -4.9266   -1.6868   -1.5373 H   0  0  0  0  0  0  0  0  0  0  0  0
   -5.8123   -0.1792    1.0020 H   0  0  0  0  0  0  0  0  0  0  0  0
   -6.0308   -1.8532    0.4963 H   0  0  0  0  0  0  0  0  0  0  0  0
   -3.7923   -2.3730    0.6312 H   0  0  0  0  0  0  0  0  0  0  0  0
   -4.2576   -1.4830    2.0902 H   0  0  0  0  0  0  0  0  0  0  0  0
   -3.2254    0.5881    1.3485 H   0  0  0  0  0  0  0  0  0  0  0  0
   -2.6971   -0.1132   -0.1866 H   0  0  0  0  0  0  0  0  0  0  0  0
   -1.8778   -0.8953    2.5968 H   0  0  0  0  0  0  0  0  0  0  0  0
   -0.9260   -0.0613    1.3416 H   0  0  0  0  0  0  0  0  0  0  0  0
   -1.8950   -2.9790    1.0105 H   0  0  0  0  0  0  0  0  0  0  0  0
   -0.9211   -2.0336   -0.1170 H   0  0  0  0  0  0  0  0  0  0  0  0
   -0.1234   -2.6641    2.7927 H   0  0  0  0  0  0  0  0  0  0  0  0
    0.5239   -3.4689    1.3476 H   0  0  0  0  0  0  0  0  0  0  0  0
    2.0421   -1.8651    2.1627 H   0  0  0  0  0  0  0  0  0  0  0  0
    0.9085   -0.5105    2.1038 H   0  0  0  0  0  0  0  0  0  0  0  0
    0.7307   -0.9161   -0.4720 H   0  0  0  0  0  0  0  0  0  0  0  0
    1.9656   -2.1692   -0.2627 H   0  0  0  0  0  0  0  0  0  0  0  0
    3.4798   -0.5274    0.7941 H   0  0  0  0  0  0  0  0  0  0  0  0
    2.2571    0.7582    0.5998 H   0  0  0  0  0  0  0  0  0  0  0  0
    3.4290   -0.8552   -1.7396 H   0  0  0  0  0  0  0  0  0  0  0  0
    2.2427    0.4558   -1.8617 H   0  0  0  0  0  0  0  0  0  0  0  0
    4.4278    1.3335   -2.3317 H   0  0  0  0  0  0  0  0  0  0  0  0
    3.7293    2.0682   -0.8683 H   0  0  0  0  0  0  0  0  0  0  0  0
    5.1818    0.5676    0.5566 H   0  0  0  0  0  0  0  0  0  0  0  0
    5.7630   -0.2081   -0.9413 H   0  0  0  0  0  0  0  0  0  0  0  0
    5.9158    2.8065   -0.2401 H   0  0  0  0  0  0  0  0  0  0  0  0
    6.5915    2.0094   -1.6933 H   0  0  0  0  0  0  0  0  0  0  0  0
    7.3007    1.3821    1.2362 H   0  0  0  0  0  0  0  0  0  0  0  0
    8.3496    2.3798    0.2033 H   0  0  0  0  0  0  0  0  0  0  0  0
    8.5663    0.4557   -1.4133 H   0  0  0  0  0  0  0  0  0  0  0  0
    7.5955   -0.5853   -0.2394 H   0  0  0  0  0  0  0  0  0  0  0  0
   10.0335   -0.9081    0.0791 H   0  0  0  0  0  0  0  0  0  0  0  0
    9.2481   -0.1480    1.5039 H   0  0  0  0  0  0  0  0  0  0  0  0
   10.2740    1.5920   -0.7649 H   0  0  0  0  0  0  0  0  0  0  0  0
   11.4820    0.8813    0.4333 H   0  0  0  0  0  0  0  0  0  0  0  0
   10.1651    1.9585    1.0429 H   0  0  0  0  0  0  0  0  0  0  0  0
  1  2  1  0
  2  3  1  0
  3  4  1  0
  4  5  1  0
  5  6  1  0
  6  7  1  0
  7  8  1  0
  8  9  1  0
  9 10  1  0
 10 11  1  0
 11 12  1  0
 12 13  1  0
 13 14  1  0
 14 15  1  0
 15 16  1  0
 16 17  1  0
 17 18  1  0
 18 19  1  0
 19 20  1  0
 20 21  1  0
 21 22  1  0
 22 23  1  0
  1 24  1  0
  1 25  1  0
  1 26  1  0
  2 27  1  0
  2 28  1  0
  3 29  1  0
  3 30  1  0
  4 31  1  0
  4 32  1  0
  5 33  1  0
  5 34  1  0
  6 35  1  0
  6 36  1  0
  7 37  1  0
  7 38  1  0
  8 39  1  0
  8 40  1  0
  9 41  1  0
  9 42  1  0
 10 43  1  0
 10 44  1  0
 11 45  1  0
 11 46  1  0
 12 47  1  0
 12 48  1  0
 13 49  1  0
 13 50  1  0
 14 51  1  0
 14 52  1  0
 15 53  1  0
 15 54  1  0
 16 55  1  0
 16 56  1  0
 17 57  1  0
 17 58  1  0
 18 59  1  0
 18 60  1  0
 19 61  1  0
 19 62  1  0
 20 63  1  0
 20 64  1  0
 21 65  1  0
 21 66  1  0
 22 67  1  0
 22 68  1  0
 23 69  1  0
 23 70  1  0
 23 71  1  0
M  END
