
     RDKit          3D

 86 85  0  0  0  0  0  0  0  0999 V2000
   11.4131    2.3139    2.4540 C   0  0  0  0  0  0  0  0  0  0  0  0
   10.3474    3.1036    1.7513 C   0  0  0  0  0  0  0  0  0  0  0  0
    9.2467    2.2244    1.1882 C   0  0  0  0  0  0  0  0  0  0  0  0
    9.8456    1.2683    0.2048 C   0  0  0  0  0  0  0  0  0  0  0  0
    8.8104    0.3429   -0.4083 C   0  0  0  0  0  0  0  0  0  0  0  0
    7.7469    1.0912   -1.1425 C   0  0  0  0  0  0  0  0  0  0  0  0
    6.7363    0.1592   -1.7615 C   0  0  0  0  0  0  0  0  0  0  0  0
    6.0754   -0.6512   -0.7009 C   0  0  0  0  0  0  0  0  0  0  0  0
    5.0322   -1.6162   -1.2332 C   0  0  0  0  0  0  0  0  0  0  0  0
    3.9155   -0.9089   -1.9595 C   0  0  0  0  0  0  0  0  0  0  0  0
    2.9204   -1.9567   -2.4452 C   0  0  0  0  0  0  0  0  0  0  0  0
    1.7659   -1.3585   -3.1821 C   0  0  0  0  0  0  0  0  0  0  0  0
    0.9637   -0.3896   -2.3571 C   0  0  0  0  0  0  0  0  0  0  0  0
    0.3688   -0.9796   -1.1342 C   0  0  0  0  0  0  0  0  0  0  0  0
   -0.5741   -2.1122   -1.3658 C   0  0  0  0  0  0  0  0  0  0  0  0
   -1.7619   -1.7811   -2.1958 C   0  0  0  0  0  0  0  0  0  0  0  0
   -2.6125   -0.6800   -1.5806 C   0  0  0  0  0  0  0  0  0  0  0  0
   -3.1309   -1.0687   -0.2131 C   0  0  0  0  0  0  0  0  0  0  0  0
   -3.9583    0.0949    0.2874 C   0  0  0  0  0  0  0  0  0  0  0  0
   -4.5424   -0.1391    1.6414 C   0  0  0  0  0  0  0  0  0  0  0  0
   -5.4488   -1.3108    1.7409 C   0  0  0  0  0  0  0  0  0  0  0  0
   -6.6431   -1.2888    0.8725 C   0  0  0  0  0  0  0  0  0  0  0  0
   -7.5710   -0.1099    1.1211 C   0  0  0  0  0  0  0  0  0  0  0  0
   -8.0972   -0.0668    2.4931 C   0  0  0  0  0  0  0  0  0  0  0  0
   -8.9410    1.0561    2.9385 C   0  0  0  0  0  0  0  0  0  0  0  0
  -10.2174    1.4003    2.3196 C   0  0  0  0  0  0  0  0  0  0  0  0
  -10.2017    1.8601    0.9140 C   0  0  0  0  0  0  0  0  0  0  0  0
  -11.6869    2.1893    0.5668 C   0  0  0  0  0  0  0  0  0  0  0  0
   12.2267    2.0166    1.7572 H   0  0  0  0  0  0  0  0  0  0  0  0
   10.9856    1.3893    2.8807 H   0  0  0  0  0  0  0  0  0  0  0  0
   11.9016    2.9423    3.2519 H   0  0  0  0  0  0  0  0  0  0  0  0
    9.8907    3.7967    2.4897 H   0  0  0  0  0  0  0  0  0  0  0  0
   10.7861    3.7120    0.9501 H   0  0  0  0  0  0  0  0  0  0  0  0
    8.5262    2.9135    0.6828 H   0  0  0  0  0  0  0  0  0  0  0  0
    8.7383    1.7200    2.0163 H   0  0  0  0  0  0  0  0  0  0  0  0
   10.3212    1.8496   -0.6072 H   0  0  0  0  0  0  0  0  0  0  0  0
   10.5998    0.6401    0.6806 H   0  0  0  0  0  0  0  0  0  0  0  0
    8.3965   -0.2491    0.4366 H   0  0  0  0  0  0  0  0  0  0  0  0
    9.3354   -0.3404   -1.0969 H   0  0  0  0  0  0  0  0  0  0  0  0
    7.2465    1.8187   -0.4482 H   0  0  0  0  0  0  0  0  0  0  0  0
    8.1605    1.7297   -1.9557 H   0  0  0  0  0  0  0  0  0  0  0  0
    7.2037   -0.4737   -2.5529 H   0  0  0  0  0  0  0  0  0  0  0  0
    5.9442    0.7377   -2.3066 H   0  0  0  0  0  0  0  0  0  0  0  0
    5.6100   -0.0360    0.0703 H   0  0  0  0  0  0  0  0  0  0  0  0
    6.8322   -1.2931   -0.1991 H   0  0  0  0  0  0  0  0  0  0  0  0
    5.5593   -2.3099   -1.9379 H   0  0  0  0  0  0  0  0  0  0  0  0
    4.6195   -2.1975   -0.3947 H   0  0  0  0  0  0  0  0  0  0  0  0
    3.4648   -0.1528   -1.3191 H   0  0  0  0  0  0  0  0  0  0  0  0
    4.3755   -0.4013   -2.8537 H   0  0  0  0  0  0  0  0  0  0  0  0
    3.4758   -2.6004   -3.1592 H   0  0  0  0  0  0  0  0  0  0  0  0
    2.6279   -2.5960   -1.5987 H   0  0  0  0  0  0  0  0  0  0  0  0
    2.1791   -0.7913   -4.0467 H   0  0  0  0  0  0  0  0  0  0  0  0
    1.1700   -2.1807   -3.6056 H   0  0  0  0  0  0  0  0  0  0  0  0
    1.6505    0.4267   -2.0496 H   0  0  0  0  0  0  0  0  0  0  0  0
    0.2134    0.0806   -3.0324 H   0  0  0  0  0  0  0  0  0  0  0  0
    1.1943   -1.3061   -0.4684 H   0  0  0  0  0  0  0  0  0  0  0  0
   -0.1638   -0.1787   -0.5827 H   0  0  0  0  0  0  0  0  0  0  0  0
   -0.9201   -2.4891   -0.3817 H   0  0  0  0  0  0  0  0  0  0  0  0
   -0.0732   -2.9977   -1.8413 H   0  0  0  0  0  0  0  0  0  0  0  0
   -2.4285   -2.6954   -2.1763 H   0  0  0  0  0  0  0  0  0  0  0  0
   -1.5540   -1.6014   -3.2513 H   0  0  0  0  0  0  0  0  0  0  0  0
   -3.4214   -0.3636   -2.2557 H   0  0  0  0  0  0  0  0  0  0  0  0
   -1.9681    0.2226   -1.4367 H   0  0  0  0  0  0  0  0  0  0  0  0
   -3.6661   -2.0170   -0.2067 H   0  0  0  0  0  0  0  0  0  0  0  0
   -2.2343   -1.1879    0.4539 H   0  0  0  0  0  0  0  0  0  0  0  0
   -4.6762    0.3578   -0.4870 H   0  0  0  0  0  0  0  0  0  0  0  0
   -3.2492    0.9579    0.3793 H   0  0  0  0  0  0  0  0  0  0  0  0
   -4.9811    0.8096    1.9944 H   0  0  0  0  0  0  0  0  0  0  0  0
   -3.6748   -0.3361    2.3369 H   0  0  0  0  0  0  0  0  0  0  0  0
   -5.7430   -1.4280    2.8054 H   0  0  0  0  0  0  0  0  0  0  0  0
   -4.8636   -2.2223    1.4921 H   0  0  0  0  0  0  0  0  0  0  0  0
   -7.2263   -2.2157    1.0485 H   0  0  0  0  0  0  0  0  0  0  0  0
   -6.3885   -1.2743   -0.2060 H   0  0  0  0  0  0  0  0  0  0  0  0
   -8.4519   -0.3679    0.4464 H   0  0  0  0  0  0  0  0  0  0  0  0
   -7.1502    0.8136    0.7171 H   0  0  0  0  0  0  0  0  0  0  0  0
   -7.1738   -0.0246    3.1781 H   0  0  0  0  0  0  0  0  0  0  0  0
   -8.6537   -1.0114    2.7713 H   0  0  0  0  0  0  0  0  0  0  0  0
   -9.0247    1.0065    4.0790 H   0  0  0  0  0  0  0  0  0  0  0  0
   -8.2438    1.9844    2.8552 H   0  0  0  0  0  0  0  0  0  0  0  0
  -10.8989    0.5004    2.3650 H   0  0  0  0  0  0  0  0  0  0  0  0
  -10.7178    2.1639    2.9957 H   0  0  0  0  0  0  0  0  0  0  0  0
   -9.6657    2.8355    0.7720 H   0  0  0  0  0  0  0  0  0  0  0  0
   -9.8980    1.1661    0.1437 H   0  0  0  0  0  0  0  0  0  0  0  0
  -12.2338    1.2486    0.7863 H   0  0  0  0  0  0  0  0  0  0  0  0
  -11.7110    2.4930   -0.4811 H   0  0  0  0  0  0  0  0  0  0  0  0
  -11.9806    2.9638    1.2894 H   0  0  0  0  0  0  0  0  0  0  0  0
  1  2  1  0
  2  3  1  0
  3  4  1  0
  4  5  1  0
  5  6  1  0
  6  7  1  0
  7  8  1  0
  8  9  1  0
  9 10  1  0
 10 11  1  0
 11 12  1  0
 12 13  1  0
 13 14  1  0
 14 15  1  0
 15 16  1  0
 16 17  1  0
 17 18  1  0
 18 19  1  0
 19 20  1  0
 20 21  1  0
 21 22  1  0
 22 23  1  0
 23 24  1  0
 24 25  1  0
 25 26  1  0
 26 27  1  0
 27 28  1  0
  1 29  1  0
  1 30  1  0
  1 31  1  0
  2 32  1  0
  2 33  1  0
  3 34  1  0
  3 35  1  0
  4 36  1  0
  4 37  1  0
  5 38  1  0
  5 39  1  0
  6 40  1  0
  6 41  1  0
  7 42  1  0
  7 43  1  0
  8 44  1  0
  8 45  1  0
  9 46  1  0
  9 47  1  0
 10 48  1  0
 10 49  1  0
 11 50  1  0
 11 51  1  0
 12 52  1  0
 12 53  1  0
 13 54  1  0
 13 55  1  0
 14 56  1  0
 14 57  1  0
 15 58  1  0
 15 59  1  0
 16 60  1  0
 16 61  1  0
 17 62  1  0
 17 63  1  0
 18 64  1  0
 18 65  1  0
 19 66  1  0
 19 67  1  0
 20 68  1  0
 20 69  1  0
 21 70  1  0
 21 71  1  0
 22 72  1  0
 22 73  1  0
 23 74  1  0
 23 75  1  0
 24 76  1  0
 24 77  1  0
 25 78  1  0
 25 79  1  0
 26 80  1  0
 26 81  1  0
 27 82  1  0
 27 83  1  0
 28 84  1  0
 28 85  1  0
 28 86  1  0
M  END
