
     RDKit          3D

 77 76  0  0  0  0  0  0  0  0999 V2000
   -9.0082   -0.6337   -2.6782 C   0  0  0  0  0  0  0  0  0  0  0  0
   -7.5771   -0.7161   -2.2381 C   0  0  0  0  0  0  0  0  0  0  0  0
   -7.4564   -1.3027   -0.8563 C   0  0  0  0  0  0  0  0  0  0  0  0
   -5.9970   -1.3632   -0.4632 C   0  0  0  0  0  0  0  0  0  0  0  0
   -5.7718   -1.9298    0.8891 C   0  0  0  0  0  0  0  0  0  0  0  0
   -6.3806   -1.2920    2.0486 C   0  0  0  0  0  0  0  0  0  0  0  0
   -6.1447    0.0827    2.4801 C   0  0  0  0  0  0  0  0  0  0  0  0
   -4.7928    0.5435    2.8609 C   0  0  0  0  0  0  0  0  0  0  0  0
   -3.7277    0.6412    1.8152 C   0  0  0  0  0  0  0  0  0  0  0  0
   -4.1319    1.6825    0.8290 C   0  0  0  0  0  0  0  0  0  0  0  0
   -3.3229    1.8951   -0.3718 C   0  0  0  0  0  0  0  0  0  0  0  0
   -1.9173    2.2724   -0.3565 C   0  0  0  0  0  0  0  0  0  0  0  0
   -0.9288    1.3246    0.1857 C   0  0  0  0  0  0  0  0  0  0  0  0
    0.5025    1.9242    0.0918 C   0  0  0  0  0  0  0  0  0  0  0  0
    1.4032    0.8794    0.6669 C   0  0  0  0  0  0  0  0  0  0  0  0
    2.8574    1.2637    0.6692 C   0  0  0  0  0  0  0  0  0  0  0  0
    3.3222    1.5198   -0.7410 C   0  0  0  0  0  0  0  0  0  0  0  0
    4.7616    1.9016   -0.8026 C   0  0  0  0  0  0  0  0  0  0  0  0
    5.6771    0.8137   -0.2317 C   0  0  0  0  0  0  0  0  0  0  0  0
    5.5207   -0.4656   -0.9893 C   0  0  0  0  0  0  0  0  0  0  0  0
    6.2511   -1.6563   -0.5594 C   0  0  0  0  0  0  0  0  0  0  0  0
    7.7100   -1.7260   -0.4926 C   0  0  0  0  0  0  0  0  0  0  0  0
    8.4702   -0.8671    0.4366 C   0  0  0  0  0  0  0  0  0  0  0  0
    9.9787   -1.2045    0.2873 C   0  0  0  0  0  0  0  0  0  0  0  0
   10.3514   -0.9267   -1.1380 C   0  0  0  0  0  0  0  0  0  0  0  0
   -9.2758   -1.5510   -3.2225 H   0  0  0  0  0  0  0  0  0  0  0  0
   -9.6241   -0.5060   -1.7639 H   0  0  0  0  0  0  0  0  0  0  0  0
   -9.1680    0.2575   -3.3129 H   0  0  0  0  0  0  0  0  0  0  0  0
   -7.0490   -1.4107   -2.9246 H   0  0  0  0  0  0  0  0  0  0  0  0
   -7.0507    0.2563   -2.3345 H   0  0  0  0  0  0  0  0  0  0  0  0
   -8.0882   -0.8428   -0.1013 H   0  0  0  0  0  0  0  0  0  0  0  0
   -7.7882   -2.3780   -0.9441 H   0  0  0  0  0  0  0  0  0  0  0  0
   -5.4807   -0.4154   -0.6224 H   0  0  0  0  0  0  0  0  0  0  0  0
   -5.4594   -2.0792   -1.1785 H   0  0  0  0  0  0  0  0  0  0  0  0
   -6.1513   -3.0329    0.8084 H   0  0  0  0  0  0  0  0  0  0  0  0
   -4.6884   -2.1153    1.0399 H   0  0  0  0  0  0  0  0  0  0  0  0
   -6.0880   -1.9587    2.9537 H   0  0  0  0  0  0  0  0  0  0  0  0
   -7.5150   -1.4418    2.0791 H   0  0  0  0  0  0  0  0  0  0  0  0
   -6.7896    0.3010    3.4256 H   0  0  0  0  0  0  0  0  0  0  0  0
   -6.5924    0.8523    1.7787 H   0  0  0  0  0  0  0  0  0  0  0  0
   -4.4050   -0.0079    3.7711 H   0  0  0  0  0  0  0  0  0  0  0  0
   -4.9155    1.5988    3.2652 H   0  0  0  0  0  0  0  0  0  0  0  0
   -2.7973    0.9865    2.3928 H   0  0  0  0  0  0  0  0  0  0  0  0
   -3.4514   -0.2996    1.3796 H   0  0  0  0  0  0  0  0  0  0  0  0
   -4.2386    2.6587    1.4302 H   0  0  0  0  0  0  0  0  0  0  0  0
   -5.2082    1.5013    0.5438 H   0  0  0  0  0  0  0  0  0  0  0  0
   -3.4239    0.9702   -1.0573 H   0  0  0  0  0  0  0  0  0  0  0  0
   -3.8641    2.6713   -1.0392 H   0  0  0  0  0  0  0  0  0  0  0  0
   -1.6151    2.4720   -1.4382 H   0  0  0  0  0  0  0  0  0  0  0  0
   -1.7741    3.2756    0.1495 H   0  0  0  0  0  0  0  0  0  0  0  0
   -1.0623    0.8892    1.1538 H   0  0  0  0  0  0  0  0  0  0  0  0
   -0.8547    0.4465   -0.5399 H   0  0  0  0  0  0  0  0  0  0  0  0
    0.7062    2.1602   -0.9543 H   0  0  0  0  0  0  0  0  0  0  0  0
    0.4956    2.8055    0.7612 H   0  0  0  0  0  0  0  0  0  0  0  0
    1.2299   -0.0718    0.1249 H   0  0  0  0  0  0  0  0  0  0  0  0
    1.0731    0.7064    1.7262 H   0  0  0  0  0  0  0  0  0  0  0  0
    3.4290    0.3896    1.0450 H   0  0  0  0  0  0  0  0  0  0  0  0
    3.0085    2.1766    1.2475 H   0  0  0  0  0  0  0  0  0  0  0  0
    3.0770    0.7373   -1.4560 H   0  0  0  0  0  0  0  0  0  0  0  0
    2.7425    2.4280   -1.0827 H   0  0  0  0  0  0  0  0  0  0  0  0
    5.0667    2.0542   -1.8573 H   0  0  0  0  0  0  0  0  0  0  0  0
    4.9753    2.8457   -0.2624 H   0  0  0  0  0  0  0  0  0  0  0  0
    6.7054    1.2056   -0.5192 H   0  0  0  0  0  0  0  0  0  0  0  0
    5.6601    0.7443    0.8499 H   0  0  0  0  0  0  0  0  0  0  0  0
    4.4120   -0.7070   -0.9508 H   0  0  0  0  0  0  0  0  0  0  0  0
    5.6748   -0.2930   -2.0998 H   0  0  0  0  0  0  0  0  0  0  0  0
    5.7885   -2.0021    0.4318 H   0  0  0  0  0  0  0  0  0  0  0  0
    5.9318   -2.5297   -1.2431 H   0  0  0  0  0  0  0  0  0  0  0  0
    7.9669   -2.8032   -0.1955 H   0  0  0  0  0  0  0  0  0  0  0  0
    8.1255   -1.6844   -1.5429 H   0  0  0  0  0  0  0  0  0  0  0  0
    8.2549   -1.1231    1.5160 H   0  0  0  0  0  0  0  0  0  0  0  0
    8.4198    0.2006    0.3546 H   0  0  0  0  0  0  0  0  0  0  0  0
   10.4965   -0.4646    0.9285 H   0  0  0  0  0  0  0  0  0  0  0  0
   10.1376   -2.2386    0.5982 H   0  0  0  0  0  0  0  0  0  0  0  0
   10.1833   -1.7926   -1.8082 H   0  0  0  0  0  0  0  0  0  0  0  0
    9.7723   -0.0296   -1.4705 H   0  0  0  0  0  0  0  0  0  0  0  0
   11.4371   -0.7089   -1.1749 H   0  0  0  0  0  0  0  0  0  0  0  0
  1  2  1  0
  2  3  1  0
  3  4  1  0
  4  5  1  0
  5  6  1  0
  6  7  1  0
  7  8  1  0
  8  9  1  0
  9 10  1  0
 10 11  1  0
 11 12  1  0
 12 13  1  0
 13 14  1  0
 14 15  1  0
 15 16  1  0
 16 17  1  0
 17 18  1  0
 18 19  1  0
 19 20  1  0
 20 21  1  0
 21 22  1  0
 22 23  1  0
 23 24  1  0
 24 25  1  0
  1 26  1  0
  1 27  1  0
  1 28  1  0
  2 29  1  0
  2 30  1  0
  3 31  1  0
  3 32  1  0
  4 33  1  0
  4 34  1  0
  5 35  1  0
  5 36  1  0
  6 37  1  0
  6 38  1  0
  7 39  1  0
  7 40  1  0
  8 41  1  0
  8 42  1  0
  9 43  1  0
  9 44  1  0
 10 45  1  0
 10 46  1  0
 11 47  1  0
 11 48  1  0
 12 49  1  0
 12 50  1  0
 13 51  1  0
 13 52  1  0
 14 53  1  0
 14 54  1  0
 15 55  1  0
 15 56  1  0
 16 57  1  0
 16 58  1  0
 17 59  1  0
 17 60  1  0
 18 61  1  0
 18 62  1  0
 19 63  1  0
 19 64  1  0
 20 65  1  0
 20 66  1  0
 21 67  1  0
 21 68  1  0
 22 69  1  0
 22 70  1  0
 23 71  1  0
 23 72  1  0
 24 73  1  0
 24 74  1  0
 25 75  1  0
 25 76  1  0
 25 77  1  0
M  END
