
     RDKit          3D

 26 25  0  0  0  0  0  0  0  0999 V2000
    3.8377    0.1746   -0.2939 C   0  0  0  0  0  0  0  0  0  0  0  0
    2.3199    0.1593   -0.2659 C   0  0  0  0  0  0  0  0  0  0  0  0
    1.7727    0.4649    1.0844 C   0  0  0  0  0  0  0  0  0  0  0  0
    0.2632    0.4509    1.0343 C   0  0  0  0  0  0  0  0  0  0  0  0
   -0.3074   -0.8775    0.6134 C   0  0  0  0  0  0  0  0  0  0  0  0
   -1.8168   -0.8698    0.6043 C   0  0  0  0  0  0  0  0  0  0  0  0
   -2.3013    0.1627   -0.3547 C   0  0  0  0  0  0  0  0  0  0  0  0
   -3.8426    0.1773   -0.3957 C   0  0  0  0  0  0  0  0  0  0  0  0
    4.2174    0.6832   -1.2107 H   0  0  0  0  0  0  0  0  0  0  0  0
    4.2551    0.7406    0.5710 H   0  0  0  0  0  0  0  0  0  0  0  0
    4.2620   -0.8505   -0.3016 H   0  0  0  0  0  0  0  0  0  0  0  0
    1.9395    0.8209   -1.0650 H   0  0  0  0  0  0  0  0  0  0  0  0
    2.0235   -0.8854   -0.5680 H   0  0  0  0  0  0  0  0  0  0  0  0
    2.0417   -0.3715    1.7973 H   0  0  0  0  0  0  0  0  0  0  0  0
    2.1576    1.3921    1.5275 H   0  0  0  0  0  0  0  0  0  0  0  0
   -0.1414    0.7835    2.0111 H   0  0  0  0  0  0  0  0  0  0  0  0
   -0.0596    1.2449    0.3079 H   0  0  0  0  0  0  0  0  0  0  0  0
    0.0604   -1.1350   -0.4225 H   0  0  0  0  0  0  0  0  0  0  0  0
    0.0977   -1.6791    1.2648 H   0  0  0  0  0  0  0  0  0  0  0  0
   -2.2406   -1.8609    0.3765 H   0  0  0  0  0  0  0  0  0  0  0  0
   -2.1160   -0.5324    1.6409 H   0  0  0  0  0  0  0  0  0  0  0  0
   -2.0236    1.1913    0.0219 H   0  0  0  0  0  0  0  0  0  0  0  0
   -1.8935   -0.0122   -1.3603 H   0  0  0  0  0  0  0  0  0  0  0  0
   -4.2402   -0.8415   -0.5636 H   0  0  0  0  0  0  0  0  0  0  0  0
   -4.1655    0.6047    0.5544 H   0  0  0  0  0  0  0  0  0  0  0  0
   -4.0999    0.8650   -1.2377 H   0  0  0  0  0  0  0  0  0  0  0  0
  1  2  1  0
  2  3  1  0
  3  4  1  0
  4  5  1  0
  5  6  1  0
  6  7  1  0
  7  8  1  0
  1  9  1  0
  1 10  1  0
  1 11  1  0
  2 12  1  0
  2 13  1  0
  3 14  1  0
  3 15  1  0
  4 16  1  0
  4 17  1  0
  5 18  1  0
  5 19  1  0
  6 20  1  0
  6 21  1  0
  7 22  1  0
  7 23  1  0
  8 24  1  0
  8 25  1  0
  8 26  1  0
M  END
