
     RDKit          3D

 14 13  0  0  0  0  0  0  0  0999 V2000
   -1.5855    0.4003    0.0027 C   0  0  0  0  0  0  0  0  0  0  0  0
   -0.6470   -0.6932    0.3078 C   0  0  0  0  0  0  0  0  0  0  0  0
    0.7283   -0.5717   -0.2649 C   0  0  0  0  0  0  0  0  0  0  0  0
    1.5091    0.6056    0.1385 C   0  0  0  0  0  0  0  0  0  0  0  0
   -2.0298    0.2686   -1.0086 H   0  0  0  0  0  0  0  0  0  0  0  0
   -1.1715    1.4185    0.0335 H   0  0  0  0  0  0  0  0  0  0  0  0
   -2.4177    0.3804    0.7481 H   0  0  0  0  0  0  0  0  0  0  0  0
   -0.6065   -0.8545    1.4061 H   0  0  0  0  0  0  0  0  0  0  0  0
   -1.0805   -1.6499   -0.1042 H   0  0  0  0  0  0  0  0  0  0  0  0
    1.2887   -1.4957    0.0641 H   0  0  0  0  0  0  0  0  0  0  0  0
    0.7058   -0.6408   -1.3731 H   0  0  0  0  0  0  0  0  0  0  0  0
    1.4612    1.4509   -0.6098 H   0  0  0  0  0  0  0  0  0  0  0  0
    1.2547    1.0381    1.1245 H   0  0  0  0  0  0  0  0  0  0  0  0
    2.5908    0.3433    0.1810 H   0  0  0  0  0  0  0  0  0  0  0  0
  1  2  1  0
  2  3  1  0
  3  4  1  0
  1  5  1  0
  1  6  1  0
  1  7  1  0
  2  8  1  0
  2  9  1  0
  3 10  1  0
  3 11  1  0
  4 12  1  0
  4 13  1  0
  4 14  1  0
M  END
