
     RDKit          3D

 47 46  0  0  0  0  0  0  0  0999 V2000
   -6.1860    1.9660    1.0977 C   0  0  0  0  0  0  0  0  0  0  0  0
   -5.1485    0.8708    1.2225 C   0  0  0  0  0  0  0  0  0  0  0  0
   -4.7756    0.3046   -0.1452 C   0  0  0  0  0  0  0  0  0  0  0  0
   -3.7324   -0.7798    0.1181 C   0  0  0  0  0  0  0  0  0  0  0  0
   -3.2951   -1.4079   -1.1909 C   0  0  0  0  0  0  0  0  0  0  0  0
   -2.2783   -2.4612   -0.8852 C   0  0  0  0  0  0  0  0  0  0  0  0
   -1.0640   -1.8713   -0.1806 C   0  0  0  0  0  0  0  0  0  0  0  0
   -0.3851   -0.8358   -1.0009 C   0  0  0  0  0  0  0  0  0  0  0  0
    0.7913   -0.2639   -0.2612 C   0  0  0  0  0  0  0  0  0  0  0  0
    1.7940   -1.3054    0.0628 C   0  0  0  0  0  0  0  0  0  0  0  0
    3.0088   -0.7723    0.7895 C   0  0  0  0  0  0  0  0  0  0  0  0
    3.7004    0.2553   -0.0519 C   0  0  0  0  0  0  0  0  0  0  0  0
    4.9264    0.8176    0.6357 C   0  0  0  0  0  0  0  0  0  0  0  0
    5.6009    1.8524   -0.2413 C   0  0  0  0  0  0  0  0  0  0  0  0
    6.8130    2.3518    0.5363 C   0  0  0  0  0  0  0  0  0  0  0  0
   -6.1345    2.4512    0.1243 H   0  0  0  0  0  0  0  0  0  0  0  0
   -5.9749    2.7193    1.8741 H   0  0  0  0  0  0  0  0  0  0  0  0
   -7.1992    1.5174    1.2060 H   0  0  0  0  0  0  0  0  0  0  0  0
   -5.4901    0.0629    1.8980 H   0  0  0  0  0  0  0  0  0  0  0  0
   -4.2333    1.2979    1.6629 H   0  0  0  0  0  0  0  0  0  0  0  0
   -4.3241    1.1021   -0.7446 H   0  0  0  0  0  0  0  0  0  0  0  0
   -5.6325   -0.1663   -0.6463 H   0  0  0  0  0  0  0  0  0  0  0  0
   -2.8786   -0.2622    0.5968 H   0  0  0  0  0  0  0  0  0  0  0  0
   -4.1228   -1.5173    0.8420 H   0  0  0  0  0  0  0  0  0  0  0  0
   -2.9735   -0.6207   -1.8672 H   0  0  0  0  0  0  0  0  0  0  0  0
   -4.1877   -1.8877   -1.6782 H   0  0  0  0  0  0  0  0  0  0  0  0
   -1.9901   -3.0610   -1.7721 H   0  0  0  0  0  0  0  0  0  0  0  0
   -2.7354   -3.1713   -0.1654 H   0  0  0  0  0  0  0  0  0  0  0  0
   -0.3415   -2.7355   -0.0610 H   0  0  0  0  0  0  0  0  0  0  0  0
   -1.3452   -1.5799    0.8296 H   0  0  0  0  0  0  0  0  0  0  0  0
   -1.0962   -0.0472   -1.3353 H   0  0  0  0  0  0  0  0  0  0  0  0
   -0.0398   -1.3326   -1.9504 H   0  0  0  0  0  0  0  0  0  0  0  0
    0.4533    0.2546    0.6800 H   0  0  0  0  0  0  0  0  0  0  0  0
    1.1796    0.5608   -0.8955 H   0  0  0  0  0  0  0  0  0  0  0  0
    2.0954   -1.8301   -0.8621 H   0  0  0  0  0  0  0  0  0  0  0  0
    1.3172   -2.0614    0.7504 H   0  0  0  0  0  0  0  0  0  0  0  0
    2.7495   -0.3558    1.7819 H   0  0  0  0  0  0  0  0  0  0  0  0
    3.6604   -1.6550    0.9939 H   0  0  0  0  0  0  0  0  0  0  0  0
    3.0077    1.1092   -0.1894 H   0  0  0  0  0  0  0  0  0  0  0  0
    4.0316   -0.2172   -0.9782 H   0  0  0  0  0  0  0  0  0  0  0  0
    5.6636    0.0242    0.8401 H   0  0  0  0  0  0  0  0  0  0  0  0
    4.6550    1.3494    1.5886 H   0  0  0  0  0  0  0  0  0  0  0  0
    5.9248    1.3194   -1.1728 H   0  0  0  0  0  0  0  0  0  0  0  0
    4.9534    2.7103   -0.4679 H   0  0  0  0  0  0  0  0  0  0  0  0
    7.4078    3.0775   -0.0336 H   0  0  0  0  0  0  0  0  0  0  0  0
    6.4152    2.7762    1.4825 H   0  0  0  0  0  0  0  0  0  0  0  0
    7.4152    1.4476    0.7762 H   0  0  0  0  0  0  0  0  0  0  0  0
  1  2  1  0
  2  3  1  0
  3  4  1  0
  4  5  1  0
  5  6  1  0
  6  7  1  0
  7  8  1  0
  8  9  1  0
  9 10  1  0
 10 11  1  0
 11 12  1  0
 12 13  1  0
 13 14  1  0
 14 15  1  0
  1 16  1  0
  1 17  1  0
  1 18  1  0
  2 19  1  0
  2 20  1  0
  3 21  1  0
  3 22  1  0
  4 23  1  0
  4 24  1  0
  5 25  1  0
  5 26  1  0
  6 27  1  0
  6 28  1  0
  7 29  1  0
  7 30  1  0
  8 31  1  0
  8 32  1  0
  9 33  1  0
  9 34  1  0
 10 35  1  0
 10 36  1  0
 11 37  1  0
 11 38  1  0
 12 39  1  0
 12 40  1  0
 13 41  1  0
 13 42  1  0
 14 43  1  0
 14 44  1  0
 15 45  1  0
 15 46  1  0
 15 47  1  0
M  END
