
     RDKit          3D

 30 30  0  0  0  0  0  0  0  0999 V2000
   -1.9685   -0.2141    0.5882 C   0  0  0  0  0  0  0  0  0  0  0  0
   -1.6086   -1.5677   -0.0166 C   0  0  0  0  0  0  0  0  0  0  0  0
   -0.2764   -2.0686    0.4871 C   0  0  0  0  0  0  0  0  0  0  0  0
    0.8733   -1.6005   -0.4093 C   0  0  0  0  0  0  0  0  0  0  0  0
    1.8437   -0.8593    0.4332 C   0  0  0  0  0  0  0  0  0  0  0  0
    2.3532    0.4118   -0.1272 C   0  0  0  0  0  0  0  0  0  0  0  0
    1.3123    1.3251   -0.6854 C   0  0  0  0  0  0  0  0  0  0  0  0
    0.3227    1.7408    0.3639 C   0  0  0  0  0  0  0  0  0  0  0  0
   -1.0425    2.0048   -0.1625 C   0  0  0  0  0  0  0  0  0  0  0  0
   -1.8668    0.8063   -0.4817 C   0  0  0  0  0  0  0  0  0  0  0  0
   -1.3357   -0.0755    1.4571 H   0  0  0  0  0  0  0  0  0  0  0  0
   -3.0239   -0.3208    0.9794 H   0  0  0  0  0  0  0  0  0  0  0  0
   -1.5336   -1.5137   -1.1205 H   0  0  0  0  0  0  0  0  0  0  0  0
   -2.3788   -2.3361    0.2021 H   0  0  0  0  0  0  0  0  0  0  0  0
   -0.2849   -3.1729    0.5520 H   0  0  0  0  0  0  0  0  0  0  0  0
   -0.1578   -1.6745    1.5224 H   0  0  0  0  0  0  0  0  0  0  0  0
    1.3346   -2.5210   -0.8744 H   0  0  0  0  0  0  0  0  0  0  0  0
    0.4202   -1.0456   -1.2277 H   0  0  0  0  0  0  0  0  0  0  0  0
    2.7340   -1.5367    0.5934 H   0  0  0  0  0  0  0  0  0  0  0  0
    1.4515   -0.6952    1.4792 H   0  0  0  0  0  0  0  0  0  0  0  0
    3.1507    0.2364   -0.8898 H   0  0  0  0  0  0  0  0  0  0  0  0
    2.8710    0.9703    0.6983 H   0  0  0  0  0  0  0  0  0  0  0  0
    1.8588    2.2462   -1.0493 H   0  0  0  0  0  0  0  0  0  0  0  0
    0.8187    0.9207   -1.5930 H   0  0  0  0  0  0  0  0  0  0  0  0
    0.3702    1.0087    1.1839 H   0  0  0  0  0  0  0  0  0  0  0  0
    0.6880    2.7060    0.8213 H   0  0  0  0  0  0  0  0  0  0  0  0
   -0.9412    2.6035   -1.0956 H   0  0  0  0  0  0  0  0  0  0  0  0
   -1.5991    2.6707    0.5486 H   0  0  0  0  0  0  0  0  0  0  0  0
   -1.4914    0.3867   -1.4611 H   0  0  0  0  0  0  0  0  0  0  0  0
   -2.8937    1.1642   -0.7160 H   0  0  0  0  0  0  0  0  0  0  0  0
  1  2  1  0
  2  3  1  0
  3  4  1  0
  4  5  1  0
  5  6  1  0
  6  7  1  0
  7  8  1  0
  8  9  1  0
  9 10  1  0
 10  1  1  0
  1 11  1  0
  1 12  1  0
  2 13  1  0
  2 14  1  0
  3 15  1  0
  3 16  1  0
  4 17  1  0
  4 18  1  0
  5 19  1  0
  5 20  1  0
  6 21  1  0
  6 22  1  0
  7 23  1  0
  7 24  1  0
  8 25  1  0
  8 26  1  0
  9 27  1  0
  9 28  1  0
 10 29  1  0
 10 30  1  0
M  END
