
     RDKit          3D

 74 76  0  0  0  0  0  0  0  0999 V2000
    2.3249    0.4369   -0.5617 C   0  0  0  0  0  0  0  0  0  0  0  0
    2.8138    1.4662    0.4615 C   0  0  0  0  0  0  0  0  0  0  0  0
    4.0304    2.2176   -0.1019 C   0  0  0  0  0  0  0  0  0  0  0  0
    5.3086    1.6625    0.4298 C   0  0  0  0  0  0  0  0  0  0  0  0
    6.0283    0.7182   -0.4837 C   0  0  0  0  0  0  0  0  0  0  0  0
    6.1600   -0.6308    0.1968 C   0  0  0  0  0  0  0  0  0  0  0  0
    5.6234   -1.7792   -0.5597 C   0  0  0  0  0  0  0  0  0  0  0  0
    4.1694   -2.0056   -0.6066 C   0  0  0  0  0  0  0  0  0  0  0  0
    3.3571   -1.5533    0.5328 C   0  0  0  0  0  0  0  0  0  0  0  0
    2.0421   -0.8432    0.1495 C   0  0  0  0  0  0  0  0  0  0  0  0
    1.3309   -0.6021    1.4672 C   0  0  0  0  0  0  0  0  0  0  0  0
    0.0381   -1.3824    1.5748 C   0  0  0  0  0  0  0  0  0  0  0  0
   -1.1788   -0.4593    1.6598 C   0  0  0  0  0  0  0  0  0  0  0  0
   -2.0589   -0.5611    0.4568 C   0  0  0  0  0  0  0  0  0  0  0  0
   -3.3376   -1.3394    0.7980 C   0  0  0  0  0  0  0  0  0  0  0  0
   -4.0564   -1.8374   -0.3993 C   0  0  0  0  0  0  0  0  0  0  0  0
   -5.5243   -1.8196   -0.3682 C   0  0  0  0  0  0  0  0  0  0  0  0
   -6.2242   -0.6614    0.2226 C   0  0  0  0  0  0  0  0  0  0  0  0
   -6.3953    0.5252   -0.6484 C   0  0  0  0  0  0  0  0  0  0  0  0
   -5.2056    1.3948   -0.8660 C   0  0  0  0  0  0  0  0  0  0  0  0
   -4.4750    1.8196    0.3426 C   0  0  0  0  0  0  0  0  0  0  0  0
   -3.0079    1.7795    0.3378 C   0  0  0  0  0  0  0  0  0  0  0  0
   -2.2836    0.6777   -0.3144 C   0  0  0  0  0  0  0  0  0  0  0  0
   -0.8905    1.2650   -0.6212 C   0  0  0  0  0  0  0  0  0  0  0  0
   -0.0469    0.4573   -1.5083 C   0  0  0  0  0  0  0  0  0  0  0  0
    1.3430    0.9743   -1.5045 C   0  0  0  0  0  0  0  0  0  0  0  0
    3.2598    0.2170   -1.1654 H   0  0  0  0  0  0  0  0  0  0  0  0
    2.0458    2.2231    0.6712 H   0  0  0  0  0  0  0  0  0  0  0  0
    3.1124    1.0171    1.4140 H   0  0  0  0  0  0  0  0  0  0  0  0
    3.9224    3.3199    0.0703 H   0  0  0  0  0  0  0  0  0  0  0  0
    3.9712    2.0935   -1.2083 H   0  0  0  0  0  0  0  0  0  0  0  0
    5.9411    2.5491    0.7328 H   0  0  0  0  0  0  0  0  0  0  0  0
    5.0649    1.1759    1.4198 H   0  0  0  0  0  0  0  0  0  0  0  0
    5.5854    0.6397   -1.5008 H   0  0  0  0  0  0  0  0  0  0  0  0
    7.0393    1.1897   -0.6816 H   0  0  0  0  0  0  0  0  0  0  0  0
    5.8359   -0.5534    1.2505 H   0  0  0  0  0  0  0  0  0  0  0  0
    7.2777   -0.8142    0.2877 H   0  0  0  0  0  0  0  0  0  0  0  0
    6.1631   -2.7034   -0.1869 H   0  0  0  0  0  0  0  0  0  0  0  0
    6.0176   -1.6812   -1.6158 H   0  0  0  0  0  0  0  0  0  0  0  0
    3.7715   -1.6842   -1.6181 H   0  0  0  0  0  0  0  0  0  0  0  0
    4.0230   -3.1334   -0.6850 H   0  0  0  0  0  0  0  0  0  0  0  0
    2.9921   -2.4153    1.1748 H   0  0  0  0  0  0  0  0  0  0  0  0
    3.8363   -0.8759    1.2504 H   0  0  0  0  0  0  0  0  0  0  0  0
    1.5186   -1.5910   -0.4729 H   0  0  0  0  0  0  0  0  0  0  0  0
    1.9375   -0.9033    2.3562 H   0  0  0  0  0  0  0  0  0  0  0  0
    1.1616    0.4868    1.6157 H   0  0  0  0  0  0  0  0  0  0  0  0
    0.0551   -2.1350    2.3805 H   0  0  0  0  0  0  0  0  0  0  0  0
   -0.0697   -1.9495    0.6268 H   0  0  0  0  0  0  0  0  0  0  0  0
   -1.7665   -0.8305    2.5527 H   0  0  0  0  0  0  0  0  0  0  0  0
   -0.8942    0.5705    1.9449 H   0  0  0  0  0  0  0  0  0  0  0  0
   -1.5478   -1.2906   -0.2434 H   0  0  0  0  0  0  0  0  0  0  0  0
   -3.9328   -0.8482    1.5652 H   0  0  0  0  0  0  0  0  0  0  0  0
   -2.9249   -2.2514    1.3410 H   0  0  0  0  0  0  0  0  0  0  0  0
   -3.7618   -2.9125   -0.6247 H   0  0  0  0  0  0  0  0  0  0  0  0
   -3.7276   -1.3207   -1.3517 H   0  0  0  0  0  0  0  0  0  0  0  0
   -5.8779   -2.7670    0.1350 H   0  0  0  0  0  0  0  0  0  0  0  0
   -5.8982   -1.9304   -1.4255 H   0  0  0  0  0  0  0  0  0  0  0  0
   -7.2870   -1.0321    0.4106 H   0  0  0  0  0  0  0  0  0  0  0  0
   -5.8928   -0.4129    1.2608 H   0  0  0  0  0  0  0  0  0  0  0  0
   -7.2067    1.1785   -0.2177 H   0  0  0  0  0  0  0  0  0  0  0  0
   -6.7516    0.1776   -1.6395 H   0  0  0  0  0  0  0  0  0  0  0  0
   -4.5806    0.8935   -1.6542 H   0  0  0  0  0  0  0  0  0  0  0  0
   -5.6061    2.2943   -1.4358 H   0  0  0  0  0  0  0  0  0  0  0  0
   -4.8518    1.3298    1.2918 H   0  0  0  0  0  0  0  0  0  0  0  0
   -4.7820    2.8963    0.5543 H   0  0  0  0  0  0  0  0  0  0  0  0
   -2.6433    2.7801   -0.0553 H   0  0  0  0  0  0  0  0  0  0  0  0
   -2.6589    1.8096    1.4147 H   0  0  0  0  0  0  0  0  0  0  0  0
   -2.6461    0.3990   -1.3240 H   0  0  0  0  0  0  0  0  0  0  0  0
   -0.4382    1.6576    0.2946 H   0  0  0  0  0  0  0  0  0  0  0  0
   -1.1567    2.2136   -1.1915 H   0  0  0  0  0  0  0  0  0  0  0  0
   -0.0158   -0.6216   -1.3664 H   0  0  0  0  0  0  0  0  0  0  0  0
   -0.4772    0.5691   -2.5536 H   0  0  0  0  0  0  0  0  0  0  0  0
    1.2705    2.0899   -1.3063 H   0  0  0  0  0  0  0  0  0  0  0  0
    1.7088    0.9662   -2.5782 H   0  0  0  0  0  0  0  0  0  0  0  0
  1  2  1  0
  2  3  1  0
  3  4  1  0
  4  5  1  0
  5  6  1  0
  6  7  1  0
  7  8  1  0
  8  9  1  0
  9 10  1  0
 10 11  1  0
 11 12  1  0
 12 13  1  0
 13 14  1  0
 14 15  1  0
 15 16  1  0
 16 17  1  0
 17 18  1  0
 18 19  1  0
 19 20  1  0
 20 21  1  0
 21 22  1  0
 14 23  1  0
 23 24  1  0
 24 25  1  0
 25 26  1  0
 10  1  1  0
 26  1  1  0
 23 22  1  0
  1 27  1  0
  2 28  1  0
  2 29  1  0
  3 30  1  0
  3 31  1  0
  4 32  1  0
  4 33  1  0
  5 34  1  0
  5 35  1  0
  6 36  1  0
  6 37  1  0
  7 38  1  0
  7 39  1  0
  8 40  1  0
  8 41  1  0
  9 42  1  0
  9 43  1  0
 10 44  1  0
 11 45  1  0
 11 46  1  0
 12 47  1  0
 12 48  1  0
 13 49  1  0
 13 50  1  0
 14 51  1  0
 15 52  1  0
 15 53  1  0
 16 54  1  0
 16 55  1  0
 17 56  1  0
 17 57  1  0
 18 58  1  0
 18 59  1  0
 19 60  1  0
 19 61  1  0
 20 62  1  0
 20 63  1  0
 21 64  1  0
 21 65  1  0
 22 66  1  0
 22 67  1  0
 23 68  1  0
 24 69  1  0
 24 70  1  0
 25 71  1  0
 25 72  1  0
 26 73  1  0
 26 74  1  0
M  END
