
     RDKit          3D

118122  0  0  0  0  0  0  0  0999 V2000
   -1.8305    0.3787   -0.6851 C   0  0  0  0  0  0  0  0  0  0  0  0
   -3.0607    0.9649   -1.2725 C   0  0  0  0  0  0  0  0  0  0  0  0
   -3.9816    1.8083   -0.5771 C   0  0  0  0  0  0  0  0  0  0  0  0
   -4.7348    1.5883    0.6256 C   0  0  0  0  0  0  0  0  0  0  0  0
   -5.6421    0.4993    0.9407 C   0  0  0  0  0  0  0  0  0  0  0  0
   -6.6509    1.0719    1.9524 C   0  0  0  0  0  0  0  0  0  0  0  0
   -7.7984    0.2858    2.3572 C   0  0  0  0  0  0  0  0  0  0  0  0
   -9.0757    0.7945    1.6847 C   0  0  0  0  0  0  0  0  0  0  0  0
   -9.8340   -0.2442    0.9489 C   0  0  0  0  0  0  0  0  0  0  0  0
   -9.5919   -0.3450   -0.5256 C   0  0  0  0  0  0  0  0  0  0  0  0
   -9.1168    0.8423   -1.2427 C   0  0  0  0  0  0  0  0  0  0  0  0
   -7.6652    1.0921   -1.3863 C   0  0  0  0  0  0  0  0  0  0  0  0
   -6.7326   -0.0127   -1.3225 C   0  0  0  0  0  0  0  0  0  0  0  0
   -6.1514   -0.4648   -0.0239 C   0  0  0  0  0  0  0  0  0  0  0  0
   -5.3675   -1.6904   -0.3528 C   0  0  0  0  0  0  0  0  0  0  0  0
   -4.2202   -2.1367    0.4295 C   0  0  0  0  0  0  0  0  0  0  0  0
   -2.8542   -1.8928   -0.2423 C   0  0  0  0  0  0  0  0  0  0  0  0
   -2.0944   -0.7481    0.3113 C   0  0  0  0  0  0  0  0  0  0  0  0
   -0.9793   -1.0783    1.2356 C   0  0  0  0  0  0  0  0  0  0  0  0
    0.1509   -1.8996    0.8474 C   0  0  0  0  0  0  0  0  0  0  0  0
    1.3970   -1.3745    0.2950 C   0  0  0  0  0  0  0  0  0  0  0  0
    1.7700    0.0439    0.4865 C   0  0  0  0  0  0  0  0  0  0  0  0
    2.7307    0.3490    1.5805 C   0  0  0  0  0  0  0  0  0  0  0  0
    3.6906   -0.6396    2.0394 C   0  0  0  0  0  0  0  0  0  0  0  0
    4.8697   -1.0356    1.2574 C   0  0  0  0  0  0  0  0  0  0  0  0
    5.6402    0.0554    0.6043 C   0  0  0  0  0  0  0  0  0  0  0  0
    6.4605    0.8646    1.6230 C   0  0  0  0  0  0  0  0  0  0  0  0
    7.1274    2.0324    1.0382 C   0  0  0  0  0  0  0  0  0  0  0  0
    8.5518    2.0071    0.7169 C   0  0  0  0  0  0  0  0  0  0  0  0
    9.3665    0.8028    1.0023 C   0  0  0  0  0  0  0  0  0  0  0  0
    9.8112    0.0753   -0.2652 C   0  0  0  0  0  0  0  0  0  0  0  0
    9.5245   -1.3665   -0.2609 C   0  0  0  0  0  0  0  0  0  0  0  0
    8.1948   -1.8479    0.1729 C   0  0  0  0  0  0  0  0  0  0  0  0
    7.0587   -1.5808   -0.7132 C   0  0  0  0  0  0  0  0  0  0  0  0
    6.3595   -0.2723   -0.6413 C   0  0  0  0  0  0  0  0  0  0  0  0
    5.4722   -0.3063   -1.8827 C   0  0  0  0  0  0  0  0  0  0  0  0
    4.3754    0.6472   -1.9858 C   0  0  0  0  0  0  0  0  0  0  0  0
    3.0183   -0.0280   -1.7160 C   0  0  0  0  0  0  0  0  0  0  0  0
    2.1197    0.7559   -0.8415 C   0  0  0  0  0  0  0  0  0  0  0  0
    0.9541    1.4130   -1.4914 C   0  0  0  0  0  0  0  0  0  0  0  0
    0.0518    0.6869   -2.3595 C   0  0  0  0  0  0  0  0  0  0  0  0
   -1.0386   -0.1658   -1.8672 C   0  0  0  0  0  0  0  0  0  0  0  0
   -1.3185    1.1631   -0.1215 H   0  0  0  0  0  0  0  0  0  0  0  0
   -3.4829    0.1782   -1.9711 H   0  0  0  0  0  0  0  0  0  0  0  0
   -2.6220    1.6445   -2.0988 H   0  0  0  0  0  0  0  0  0  0  0  0
   -4.7183    2.1567   -1.3817 H   0  0  0  0  0  0  0  0  0  0  0  0
   -3.4374    2.8050   -0.3956 H   0  0  0  0  0  0  0  0  0  0  0  0
   -4.0350    1.7717    1.5118 H   0  0  0  0  0  0  0  0  0  0  0  0
   -5.3407    2.5665    0.7289 H   0  0  0  0  0  0  0  0  0  0  0  0
   -5.0663   -0.1786    1.6609 H   0  0  0  0  0  0  0  0  0  0  0  0
   -6.0319    1.4223    2.8423 H   0  0  0  0  0  0  0  0  0  0  0  0
   -7.0308    2.0814    1.5973 H   0  0  0  0  0  0  0  0  0  0  0  0
   -7.7402   -0.8148    2.3847 H   0  0  0  0  0  0  0  0  0  0  0  0
   -7.9728    0.5021    3.4669 H   0  0  0  0  0  0  0  0  0  0  0  0
   -9.7868    1.2481    2.4443 H   0  0  0  0  0  0  0  0  0  0  0  0
   -8.8005    1.6888    1.0720 H   0  0  0  0  0  0  0  0  0  0  0  0
  -10.9351   -0.2308    1.2198 H   0  0  0  0  0  0  0  0  0  0  0  0
   -9.5055   -1.2406    1.3831 H   0  0  0  0  0  0  0  0  0  0  0  0
  -10.6137   -0.6201   -0.9531 H   0  0  0  0  0  0  0  0  0  0  0  0
   -9.0127   -1.2766   -0.8102 H   0  0  0  0  0  0  0  0  0  0  0  0
   -9.6175    1.7477   -0.7832 H   0  0  0  0  0  0  0  0  0  0  0  0
   -9.5837    0.8332   -2.2796 H   0  0  0  0  0  0  0  0  0  0  0  0
   -7.2780    1.9457   -0.7517 H   0  0  0  0  0  0  0  0  0  0  0  0
   -7.5074    1.5713   -2.4144 H   0  0  0  0  0  0  0  0  0  0  0  0
   -7.2426   -0.9323   -1.7524 H   0  0  0  0  0  0  0  0  0  0  0  0
   -5.8591    0.1049   -2.0341 H   0  0  0  0  0  0  0  0  0  0  0  0
   -7.0638   -0.8952    0.5103 H   0  0  0  0  0  0  0  0  0  0  0  0
   -6.1004   -2.5406   -0.5634 H   0  0  0  0  0  0  0  0  0  0  0  0
   -4.9613   -1.5717   -1.4109 H   0  0  0  0  0  0  0  0  0  0  0  0
   -4.2646   -3.2816    0.4335 H   0  0  0  0  0  0  0  0  0  0  0  0
   -4.1679   -1.9436    1.5054 H   0  0  0  0  0  0  0  0  0  0  0  0
   -3.0941   -1.6879   -1.3062 H   0  0  0  0  0  0  0  0  0  0  0  0
   -2.2315   -2.8103   -0.2697 H   0  0  0  0  0  0  0  0  0  0  0  0
   -2.8226   -0.2206    1.0073 H   0  0  0  0  0  0  0  0  0  0  0  0
   -0.7339   -0.1377    1.8130 H   0  0  0  0  0  0  0  0  0  0  0  0
   -1.5118   -1.6681    2.0659 H   0  0  0  0  0  0  0  0  0  0  0  0
   -0.2502   -2.7020    0.1528 H   0  0  0  0  0  0  0  0  0  0  0  0
    0.4498   -2.5534    1.7370 H   0  0  0  0  0  0  0  0  0  0  0  0
    1.3898   -1.5535   -0.8256 H   0  0  0  0  0  0  0  0  0  0  0  0
    2.2549   -2.0621    0.5756 H   0  0  0  0  0  0  0  0  0  0  0  0
    0.8088    0.5844    0.7536 H   0  0  0  0  0  0  0  0  0  0  0  0
    2.1428    0.6652    2.5075 H   0  0  0  0  0  0  0  0  0  0  0  0
    3.2108    1.3391    1.3135 H   0  0  0  0  0  0  0  0  0  0  0  0
    3.1411   -1.5745    2.3327 H   0  0  0  0  0  0  0  0  0  0  0  0
    4.0822   -0.2799    3.0457 H   0  0  0  0  0  0  0  0  0  0  0  0
    5.5993   -1.5257    1.9779 H   0  0  0  0  0  0  0  0  0  0  0  0
    4.7126   -1.8377    0.5055 H   0  0  0  0  0  0  0  0  0  0  0  0
    4.8677    0.8216    0.2891 H   0  0  0  0  0  0  0  0  0  0  0  0
    5.6446    1.2380    2.3297 H   0  0  0  0  0  0  0  0  0  0  0  0
    7.0397    0.2218    2.2999 H   0  0  0  0  0  0  0  0  0  0  0  0
    6.9134    2.9469    1.6805 H   0  0  0  0  0  0  0  0  0  0  0  0
    6.5397    2.3040    0.1028 H   0  0  0  0  0  0  0  0  0  0  0  0
    9.0810    2.8947    1.1909 H   0  0  0  0  0  0  0  0  0  0  0  0
    8.7257    2.2332   -0.3843 H   0  0  0  0  0  0  0  0  0  0  0  0
   10.3338    1.0819    1.5281 H   0  0  0  0  0  0  0  0  0  0  0  0
    8.9376    0.0443    1.6492 H   0  0  0  0  0  0  0  0  0  0  0  0
    9.4205    0.6071   -1.1848 H   0  0  0  0  0  0  0  0  0  0  0  0
   10.9332    0.1686   -0.4162 H   0  0  0  0  0  0  0  0  0  0  0  0
    9.7201   -1.7649   -1.2786 H   0  0  0  0  0  0  0  0  0  0  0  0
   10.2959   -1.8732    0.3913 H   0  0  0  0  0  0  0  0  0  0  0  0
    7.9827   -1.7055    1.2648 H   0  0  0  0  0  0  0  0  0  0  0  0
    8.3119   -2.9874    0.1406 H   0  0  0  0  0  0  0  0  0  0  0  0
    7.4483   -1.6770   -1.7722 H   0  0  0  0  0  0  0  0  0  0  0  0
    6.2882   -2.3951   -0.6529 H   0  0  0  0  0  0  0  0  0  0  0  0
    7.0580    0.5809   -0.8430 H   0  0  0  0  0  0  0  0  0  0  0  0
    5.0386   -1.3447   -2.0065 H   0  0  0  0  0  0  0  0  0  0  0  0
    6.1932   -0.2368   -2.7514 H   0  0  0  0  0  0  0  0  0  0  0  0
    4.4622    1.6266   -1.5035 H   0  0  0  0  0  0  0  0  0  0  0  0
    4.3018    0.9374   -3.0860 H   0  0  0  0  0  0  0  0  0  0  0  0
    2.5574   -0.3961   -2.6645 H   0  0  0  0  0  0  0  0  0  0  0  0
    3.2819   -0.9725   -1.1784 H   0  0  0  0  0  0  0  0  0  0  0  0
    2.7579    1.6235   -0.4652 H   0  0  0  0  0  0  0  0  0  0  0  0
    1.4042    2.2499   -2.1221 H   0  0  0  0  0  0  0  0  0  0  0  0
    0.4360    2.0048   -0.6799 H   0  0  0  0  0  0  0  0  0  0  0  0
    0.6366    0.0812   -3.0850 H   0  0  0  0  0  0  0  0  0  0  0  0
   -0.4387    1.4541   -3.0483 H   0  0  0  0  0  0  0  0  0  0  0  0
   -1.7277   -0.3264   -2.7640 H   0  0  0  0  0  0  0  0  0  0  0  0
   -0.7703   -1.2508   -1.6840 H   0  0  0  0  0  0  0  0  0  0  0  0
  1  2  1  0
  2  3  1  0
  3  4  1  0
  4  5  1  0
  5  6  1  0
  6  7  1  0
  7  8  1  0
  8  9  1  0
  9 10  1  0
 10 11  1  0
 11 12  1  0
 12 13  1  0
  5 14  1  0
 14 15  1  0
 15 16  1  0
 16 17  1  0
 17 18  1  0
 18 19  1  0
 19 20  1  0
 20 21  1  0
 21 22  1  0
 22 23  1  0
 23 24  1  0
 24 25  1  0
 25 26  1  0
 26 27  1  0
 27 28  1  0
 28 29  1  0
 29 30  1  0
 30 31  1  0
 31 32  1  0
 32 33  1  0
 33 34  1  0
 26 35  1  0
 35 36  1  0
 36 37  1  0
 37 38  1  0
 22 39  1  0
 39 40  1  0
 40 41  1  0
 41 42  1  0
 18  1  1  0
 42  1  1  0
 14 13  1  0
 35 34  1  0
 39 38  1  0
  1 43  1  0
  2 44  1  0
  2 45  1  0
  3 46  1  0
  3 47  1  0
  4 48  1  0
  4 49  1  0
  5 50  1  0
  6 51  1  0
  6 52  1  0
  7 53  1  0
  7 54  1  0
  8 55  1  0
  8 56  1  0
  9 57  1  0
  9 58  1  0
 10 59  1  0
 10 60  1  0
 11 61  1  0
 11 62  1  0
 12 63  1  0
 12 64  1  0
 13 65  1  0
 13 66  1  0
 14 67  1  0
 15 68  1  0
 15 69  1  0
 16 70  1  0
 16 71  1  0
 17 72  1  0
 17 73  1  0
 18 74  1  0
 19 75  1  0
 19 76  1  0
 20 77  1  0
 20 78  1  0
 21 79  1  0
 21 80  1  0
 22 81  1  0
 23 82  1  0
 23 83  1  0
 24 84  1  0
 24 85  1  0
 25 86  1  0
 25 87  1  0
 26 88  1  0
 27 89  1  0
 27 90  1  0
 28 91  1  0
 28 92  1  0
 29 93  1  0
 29 94  1  0
 30 95  1  0
 30 96  1  0
 31 97  1  0
 31 98  1  0
 32 99  1  0
 32100  1  0
 33101  1  0
 33102  1  0
 34103  1  0
 34104  1  0
 35105  1  0
 36106  1  0
 36107  1  0
 37108  1  0
 37109  1  0
 38110  1  0
 38111  1  0
 39112  1  0
 40113  1  0
 40114  1  0
 41115  1  0
 41116  1  0
 42117  1  0
 42118  1  0
M  END
